MODEL 1
REMARK VINA RESULT:      -6.1      0.000      0.000
REMARK  4 active torsions:
REMARK  status: ('A' for Active; 'I' for Inactive)
REMARK    1  A    between atoms: O1_2  and  C2_3 
REMARK    2  A    between atoms: C7_8  and  C8_9 
REMARK    3  A    between atoms: C8_9  and  N1_10 
REMARK       I    between atoms: N1_10  and  C9_11 
REMARK    4  A    between atoms: C9_11  and  C10_13 
ROOT
HETATM    1  C10 UNK   900     106.117 -74.544-277.610  1.00  0.00     0.155 C 
HETATM    2  N2  UNK   900     107.042 -74.892-276.363  1.00  0.00    -0.203 NA
HETATM    3  C11 UNK   900     106.655 -75.607-275.178  1.00  0.00     0.234 C 
HETATM    4  O3  UNK   900     106.481 -76.858-275.136  1.00  0.00    -0.274 OA
HETATM    5  C12 UNK   900     106.222 -74.652-274.140  1.00  0.00     0.034 C 
HETATM    6  C13 UNK   900     105.827 -74.762-272.819  1.00  0.00     0.000 C 
HETATM    7  C14 UNK   900     104.932 -73.819-272.352  1.00  0.00    -0.001 C 
HETATM    8  C15 UNK   900     104.722 -72.659-273.088  1.00  0.00    -0.004 C 
HETATM    9  C16 UNK   900     105.526 -72.416-274.195  1.00  0.00    -0.020 C 
HETATM   10  C17 UNK   900     105.989 -73.513-274.918  1.00  0.00     0.074 C 
HETATM   11  C18 UNK   900     107.376 -73.547-275.699  1.00  0.00     0.121 C 
HETATM   12  S1  UNK   900     106.828 -72.377-277.138  1.00  0.00    -0.124 SA
HETATM   13  C19 UNK   900     107.315 -73.638-278.335  1.00  0.00     0.063 C 
HETATM   14  C20 UNK   900     108.561 -74.341-278.084  1.00  0.00     0.013 C 
HETATM   15  C21 UNK   900     106.880 -73.332-279.694  1.00  0.00     0.013 C 
ENDROOT
BRANCH   1  16
HETATM   16  C9  UNK   900     106.560 -75.929-278.370  1.00  0.00     0.268 C 
HETATM   17  N1  UNK   900     105.612 -76.923-277.940  1.00  0.00    -0.232 NA
HETATM   18  O2  UNK   900     106.613 -75.830-279.613  1.00  0.00    -0.269 OA
BRANCH  17  19
HETATM   19  C8  UNK   900     105.430 -78.124-278.734  1.00  0.00     0.157 C 
BRANCH  19  20
HETATM   20  C7  UNK   900     104.006 -78.348-279.097  1.00  0.00     0.025 C 
HETATM   21  C2  UNK   900     103.657 -79.588-279.597  1.00  0.00     0.092 C 
HETATM   22  C3  UNK   900     102.501 -79.685-280.358  1.00  0.00     0.024 C 
HETATM   23  C4  UNK   900     101.526 -78.717-280.316  1.00  0.00     0.002 C 
HETATM   24  C5  UNK   900     101.920 -77.483-279.810  1.00  0.00    -0.000 C 
HETATM   25  C6  UNK   900     103.191 -77.264-279.338  1.00  0.00    -0.000 C 
BRANCH  21  26
HETATM   26  O1  UNK   900     104.600 -80.586-279.756  1.00  0.00    -0.328 OA
HETATM   27  C1  UNK   900     104.511 -81.762-278.992  1.00  0.00     0.181 C 
ENDBRANCH  21  26
ENDBRANCH  19  20
ENDBRANCH  17  19
ENDBRANCH   1  16
TORSDOF 4
ENDMDL
MODEL 2
REMARK VINA RESULT:      -6.1      5.434      8.072
REMARK  4 active torsions:
REMARK  status: ('A' for Active; 'I' for Inactive)
REMARK    1  A    between atoms: O1_2  and  C2_3 
REMARK    2  A    between atoms: C7_8  and  C8_9 
REMARK    3  A    between atoms: C8_9  and  N1_10 
REMARK       I    between atoms: N1_10  and  C9_11 
REMARK    4  A    between atoms: C9_11  and  C10_13 
ROOT
HETATM    1  C10 UNK   900     112.689 -76.353-278.723  1.00  0.00     0.155 C 
HETATM    2  N2  UNK   900     112.730 -77.854-278.198  1.00  0.00    -0.203 NA
HETATM    3  C11 UNK   900     112.502 -78.302-276.851  1.00  0.00     0.234 C 
HETATM    4  O3  UNK   900     111.360 -78.362-276.314  1.00  0.00    -0.274 OA
HETATM    5  C12 UNK   900     113.787 -78.389-276.133  1.00  0.00     0.034 C 
HETATM    6  C13 UNK   900     114.173 -78.819-274.875  1.00  0.00     0.000 C 
HETATM    7  C14 UNK   900     115.281 -78.212-274.319  1.00  0.00    -0.001 C 
HETATM    8  C15 UNK   900     116.126 -77.464-275.131  1.00  0.00    -0.004 C 
HETATM    9  C16 UNK   900     115.908 -77.469-276.503  1.00  0.00    -0.020 C 
HETATM   10  C17 UNK   900     114.598 -77.601-276.956  1.00  0.00     0.074 C 
HETATM   11  C18 UNK   900     114.193 -78.304-278.326  1.00  0.00     0.121 C 
HETATM   12  S1  UNK   900     114.826 -76.886-279.478  1.00  0.00    -0.124 SA
HETATM   13  C19 UNK   900     113.195 -76.798-280.248  1.00  0.00     0.063 C 
HETATM   14  C20 UNK   900     112.535 -78.057-280.542  1.00  0.00     0.013 C 
HETATM   15  C21 UNK   900     113.041 -75.641-281.123  1.00  0.00     0.013 C 
ENDROOT
BRANCH   1  16
HETATM   16  C9  UNK   900     111.098 -76.490-279.098  1.00  0.00     0.268 C 
HETATM   17  N1  UNK   900     110.387 -76.091-277.912  1.00  0.00    -0.232 NA
HETATM   18  O2  UNK   900     110.755 -75.831-280.101  1.00  0.00    -0.269 OA
BRANCH  17  19
HETATM   19  C8  UNK   900     109.002 -75.671-278.018  1.00  0.00     0.157 C 
BRANCH  19  20
HETATM   20  C7  UNK   900     108.755 -74.372-277.340  1.00  0.00     0.025 C 
HETATM   21  C2  UNK   900     108.125 -74.398-276.110  1.00  0.00     0.092 C 
HETATM   22  C3  UNK   900     107.476 -73.249-275.682  1.00  0.00     0.024 C 
HETATM   23  C4  UNK   900     107.749 -72.019-276.232  1.00  0.00     0.002 C 
HETATM   24  C5  UNK   900     108.378 -72.037-277.472  1.00  0.00    -0.000 C 
HETATM   25  C6  UNK   900     108.748 -73.212-278.081  1.00  0.00    -0.000 C 
BRANCH  21  26
HETATM   26  O1  UNK   900     107.737 -75.592-275.531  1.00  0.00    -0.328 OA
HETATM   27  C1  UNK   900     106.882 -75.584-274.416  1.00  0.00     0.181 C 
ENDBRANCH  21  26
ENDBRANCH  19  20
ENDBRANCH  17  19
ENDBRANCH   1  16
TORSDOF 4
ENDMDL
MODEL 3
REMARK VINA RESULT:      -5.5     16.645     19.196
REMARK  4 active torsions:
REMARK  status: ('A' for Active; 'I' for Inactive)
REMARK    1  A    between atoms: O1_2  and  C2_3 
REMARK    2  A    between atoms: C7_8  and  C8_9 
REMARK    3  A    between atoms: C8_9  and  N1_10 
REMARK       I    between atoms: N1_10  and  C9_11 
REMARK    4  A    between atoms: C9_11  and  C10_13 
ROOT
HETATM    1  C10 UNK   900      89.180 -81.017-272.708  1.00  0.00     0.155 C 
HETATM    2  N2  UNK   900      89.891 -79.600-272.842  1.00  0.00    -0.203 NA
HETATM    3  C11 UNK   900      89.265 -78.310-272.735  1.00  0.00     0.234 C 
HETATM    4  O3  UNK   900      88.900 -77.793-271.641  1.00  0.00    -0.274 OA
HETATM    5  C12 UNK   900      88.865 -77.839-274.074  1.00  0.00     0.034 C 
HETATM    6  C13 UNK   900      88.308 -76.674-274.571  1.00  0.00     0.000 C 
HETATM    7  C14 UNK   900      87.518 -76.789-275.698  1.00  0.00    -0.001 C 
HETATM    8  C15 UNK   900      87.572 -77.957-276.450  1.00  0.00    -0.004 C 
HETATM    9  C16 UNK   900      88.526 -78.914-276.127  1.00  0.00    -0.020 C 
HETATM   10  C17 UNK   900      88.898 -79.040-274.791  1.00  0.00     0.074 C 
HETATM   11  C18 UNK   900      90.345 -79.494-274.305  1.00  0.00     0.121 C 
HETATM   12  S1  UNK   900      90.151 -81.354-274.797  1.00  0.00    -0.124 SA
HETATM   13  C19 UNK   900      90.577 -81.834-273.110  1.00  0.00     0.063 C 
HETATM   14  C20 UNK   900      91.664 -81.113-272.472  1.00  0.00     0.013 C 
HETATM   15  C21 UNK   900      90.353 -83.252-272.847  1.00  0.00     0.013 C 
ENDROOT
BRANCH   1  16
HETATM   16  C9  UNK   900      89.492 -81.061-271.098  1.00  0.00     0.268 C 
HETATM   17  N1  UNK   900      88.509 -80.204-270.491  1.00  0.00    -0.232 NA
HETATM   18  O2  UNK   900      89.484 -82.211-270.612  1.00  0.00    -0.269 OA
BRANCH  17  19
HETATM   19  C8  UNK   900      88.209 -80.351-269.079  1.00  0.00     0.157 C 
BRANCH  19  20
HETATM   20  C7  UNK   900      87.494 -79.170-268.530  1.00  0.00     0.025 C 
HETATM   21  C2  UNK   900      87.861 -78.721-267.275  1.00  0.00     0.092 C 
HETATM   22  C3  UNK   900      86.948 -77.963-266.558  1.00  0.00     0.024 C 
HETATM   23  C4  UNK   900      85.887 -77.340-267.171  1.00  0.00     0.002 C 
HETATM   24  C5  UNK   900      85.547 -77.824-268.430  1.00  0.00    -0.000 C 
HETATM   25  C6  UNK   900      86.261 -78.828-269.039  1.00  0.00    -0.000 C 
BRANCH  21  26
HETATM   26  O1  UNK   900      88.858 -79.352-266.554  1.00  0.00    -0.328 OA
HETATM   27  C1  UNK   900      88.732 -79.494-265.162  1.00  0.00     0.181 C 
ENDBRANCH  21  26
ENDBRANCH  19  20
ENDBRANCH  17  19
ENDBRANCH   1  16
TORSDOF 4
ENDMDL
MODEL 4
REMARK VINA RESULT:      -5.3     18.872     21.833
REMARK  4 active torsions:
REMARK  status: ('A' for Active; 'I' for Inactive)
REMARK    1  A    between atoms: O1_2  and  C2_3 
REMARK    2  A    between atoms: C7_8  and  C8_9 
REMARK    3  A    between atoms: C8_9  and  N1_10 
REMARK       I    between atoms: N1_10  and  C9_11 
REMARK    4  A    between atoms: C9_11  and  C10_13 
ROOT
HETATM    1  C10 UNK   900      93.198 -57.916-275.281  1.00  0.00     0.155 C 
HETATM    2  N2  UNK   900      94.369 -58.969-275.060  1.00  0.00    -0.203 NA
HETATM    3  C11 UNK   900      95.348 -59.383-276.027  1.00  0.00     0.234 C 
HETATM    4  O3  UNK   900      96.332 -58.673-276.380  1.00  0.00    -0.274 OA
HETATM    5  C12 UNK   900      94.873 -60.590-276.729  1.00  0.00     0.034 C 
HETATM    6  C13 UNK   900      95.414 -61.442-277.676  1.00  0.00     0.000 C 
HETATM    7  C14 UNK   900      94.531 -62.061-278.539  1.00  0.00    -0.001 C 
HETATM    8  C15 UNK   900      93.174 -62.066-278.234  1.00  0.00    -0.004 C 
HETATM    9  C16 UNK   900      92.766 -61.576-277.000  1.00  0.00    -0.020 C 
HETATM   10  C17 UNK   900      93.508 -60.544-276.430  1.00  0.00     0.074 C 
HETATM   11  C18 UNK   900      93.680 -60.328-274.862  1.00  0.00     0.121 C 
HETATM   12  S1  UNK   900      91.882 -59.690-274.546  1.00  0.00    -0.124 SA
HETATM   13  C19 UNK   900      92.556 -58.206-273.769  1.00  0.00     0.063 C 
HETATM   14  C20 UNK   900      93.688 -58.383-272.877  1.00  0.00     0.013 C 
HETATM   15  C21 UNK   900      91.543 -57.187-273.514  1.00  0.00     0.013 C 
ENDROOT
BRANCH   1  16
HETATM   16  C9  UNK   900      94.153 -56.690-274.754  1.00  0.00     0.268 C 
HETATM   17  N1  UNK   900      95.051 -56.408-275.842  1.00  0.00    -0.232 NA
HETATM   18  O2  UNK   900      93.522 -55.679-274.385  1.00  0.00    -0.269 OA
BRANCH  17  19
HETATM   19  C8  UNK   900      95.720 -55.121-275.899  1.00  0.00     0.157 C 
BRANCH  19  20
HETATM   20  C7  UNK   900      97.135 -55.242-276.340  1.00  0.00     0.025 C 
HETATM   21  C2  UNK   900      97.392 -55.182-277.697  1.00  0.00     0.092 C 
HETATM   22  C3  UNK   900      98.574 -55.740-278.164  1.00  0.00     0.024 C 
HETATM   23  C4  UNK   900      99.632 -55.996-277.324  1.00  0.00     0.002 C 
HETATM   24  C5  UNK   900      99.329 -56.052-275.968  1.00  0.00    -0.000 C 
HETATM   25  C6  UNK   900      98.060 -55.816-275.498  1.00  0.00    -0.000 C 
BRANCH  21  26
HETATM   26  O1  UNK   900      96.370 -55.018-278.612  1.00  0.00    -0.328 OA
HETATM   27  C1  UNK   900      96.074 -56.047-279.522  1.00  0.00     0.181 C 
ENDBRANCH  21  26
ENDBRANCH  19  20
ENDBRANCH  17  19
ENDBRANCH   1  16
TORSDOF 4
ENDMDL
MODEL 5
REMARK VINA RESULT:      -5.2      5.063      7.873
REMARK  4 active torsions:
REMARK  status: ('A' for Active; 'I' for Inactive)
REMARK    1  A    between atoms: O1_2  and  C2_3 
REMARK    2  A    between atoms: C7_8  and  C8_9 
REMARK    3  A    between atoms: C8_9  and  N1_10 
REMARK       I    between atoms: N1_10  and  C9_11 
REMARK    4  A    between atoms: C9_11  and  C10_13 
ROOT
HETATM    1  C10 UNK   900     112.496 -75.392-279.759  1.00  0.00     0.155 C 
HETATM    2  N2  UNK   900     112.456 -76.902-279.259  1.00  0.00    -0.203 NA
HETATM    3  C11 UNK   900     112.157 -77.361-277.930  1.00  0.00     0.234 C 
HETATM    4  O3  UNK   900     110.993 -77.384-277.439  1.00  0.00    -0.274 OA
HETATM    5  C12 UNK   900     113.409 -77.511-277.163  1.00  0.00     0.034 C 
HETATM    6  C13 UNK   900     113.726 -77.975-275.899  1.00  0.00     0.000 C 
HETATM    7  C14 UNK   900     114.835 -77.422-275.289  1.00  0.00    -0.001 C 
HETATM    8  C15 UNK   900     115.740 -76.695-276.054  1.00  0.00    -0.004 C 
HETATM    9  C16 UNK   900     115.577 -76.670-277.434  1.00  0.00    -0.020 C 
HETATM   10  C17 UNK   900     114.282 -76.743-277.940  1.00  0.00     0.074 C 
HETATM   11  C18 UNK   900     113.905 -77.408-279.337  1.00  0.00     0.121 C 
HETATM   12  S1  UNK   900     114.639 -75.998-280.438  1.00  0.00    -0.124 SA
HETATM   13  C19 UNK   900     113.045 -75.833-281.271  1.00  0.00     0.063 C 
HETATM   14  C20 UNK   900     112.348 -77.060-281.612  1.00  0.00     0.013 C 
HETATM   15  C21 UNK   900     112.971 -74.657-282.131  1.00  0.00     0.013 C 
ENDROOT
BRANCH   1  16
HETATM   16  C9  UNK   900     110.916 -75.460-280.199  1.00  0.00     0.268 C 
HETATM   17  N1  UNK   900     110.183 -74.919-279.085  1.00  0.00    -0.232 NA
HETATM   18  O2  UNK   900     110.662 -74.867-281.267  1.00  0.00    -0.269 OA
BRANCH  17  19
HETATM   19  C8  UNK   900     108.836 -74.423-279.292  1.00  0.00     0.157 C 
BRANCH  19  20
HETATM   20  C7  UNK   900     108.143 -74.124-278.011  1.00  0.00     0.025 C 
HETATM   21  C2  UNK   900     106.848 -73.647-278.076  1.00  0.00     0.092 C 
HETATM   22  C3  UNK   900     106.356 -72.938-276.990  1.00  0.00     0.024 C 
HETATM   23  C4  UNK   900     106.945 -73.016-275.750  1.00  0.00     0.002 C 
HETATM   24  C5  UNK   900     108.250 -73.496-275.730  1.00  0.00    -0.000 C 
HETATM   25  C6  UNK   900     108.889 -73.912-276.873  1.00  0.00    -0.000 C 
BRANCH  21  26
HETATM   26  O1  UNK   900     106.218 -73.454-279.291  1.00  0.00    -0.328 OA
HETATM   27  C1  UNK   900     105.736 -72.179-279.634  1.00  0.00     0.181 C 
ENDBRANCH  21  26
ENDBRANCH  19  20
ENDBRANCH  17  19
ENDBRANCH   1  16
TORSDOF 4
ENDMDL
MODEL 6
REMARK VINA RESULT:      -5.2     23.492     25.686
REMARK  4 active torsions:
REMARK  status: ('A' for Active; 'I' for Inactive)
REMARK    1  A    between atoms: O1_2  and  C2_3 
REMARK    2  A    between atoms: C7_8  and  C8_9 
REMARK    3  A    between atoms: C8_9  and  N1_10 
REMARK       I    between atoms: N1_10  and  C9_11 
REMARK    4  A    between atoms: C9_11  and  C10_13 
ROOT
HETATM    1  C10 UNK   900      92.338 -86.962-256.276  1.00  0.00     0.155 C 
HETATM    2  N2  UNK   900      93.258 -85.723-255.888  1.00  0.00    -0.203 NA
HETATM    3  C11 UNK   900      94.582 -85.448-256.378  1.00  0.00     0.234 C 
HETATM    4  O3  UNK   900      94.825 -85.003-257.535  1.00  0.00    -0.274 OA
HETATM    5  C12 UNK   900      95.581 -86.026-255.460  1.00  0.00     0.034 C 
HETATM    6  C13 UNK   900      96.963 -86.009-255.389  1.00  0.00     0.000 C 
HETATM    7  C14 UNK   900      97.574 -87.106-254.815  1.00  0.00    -0.001 C 
HETATM    8  C15 UNK   900      96.811 -87.997-254.069  1.00  0.00    -0.004 C 
HETATM    9  C16 UNK   900      95.485 -87.677-253.802  1.00  0.00    -0.020 C 
HETATM   10  C17 UNK   900      94.788 -86.936-254.753  1.00  0.00     0.074 C 
HETATM   11  C18 UNK   900      93.617 -85.915-254.406  1.00  0.00     0.121 C 
HETATM   12  S1  UNK   900      92.298 -87.259-253.967  1.00  0.00    -0.124 SA
HETATM   13  C19 UNK   900      91.167 -86.528-255.170  1.00  0.00     0.063 C 
HETATM   14  C20 UNK   900      91.091 -85.079-255.210  1.00  0.00     0.013 C 
HETATM   15  C21 UNK   900      89.991 -87.354-255.422  1.00  0.00     0.013 C 
ENDROOT
BRANCH   1  16
HETATM   16  C9  UNK   900      91.647 -86.111-257.497  1.00  0.00     0.268 C 
HETATM   17  N1  UNK   900      92.496 -86.320-258.640  1.00  0.00    -0.232 NA
HETATM   18  O2  UNK   900      90.460 -86.423-257.725  1.00  0.00    -0.269 OA
BRANCH  17  19
HETATM   19  C8  UNK   900      91.968 -86.091-259.972  1.00  0.00     0.157 C 
BRANCH  19  20
HETATM   20  C7  UNK   900      92.946 -86.445-261.034  1.00  0.00     0.025 C 
HETATM   21  C2  UNK   900      92.451 -86.764-262.284  1.00  0.00     0.092 C 
HETATM   22  C3  UNK   900      93.247 -87.525-263.128  1.00  0.00     0.024 C 
HETATM   23  C4  UNK   900      94.602 -87.644-262.930  1.00  0.00     0.002 C 
HETATM   24  C5  UNK   900      95.058 -87.318-261.657  1.00  0.00    -0.000 C 
HETATM   25  C6  UNK   900      94.210 -86.858-260.678  1.00  0.00    -0.000 C 
BRANCH  21  26
HETATM   26  O1  UNK   900      91.093 -86.757-262.538  1.00  0.00    -0.328 OA
HETATM   27  C1  UNK   900      90.530 -85.728-263.311  1.00  0.00     0.181 C 
ENDBRANCH  21  26
ENDBRANCH  19  20
ENDBRANCH  17  19
ENDBRANCH   1  16
TORSDOF 4
ENDMDL
MODEL 7
REMARK VINA RESULT:      -5.2     15.080     17.745
REMARK  4 active torsions:
REMARK  status: ('A' for Active; 'I' for Inactive)
REMARK    1  A    between atoms: O1_2  and  C2_3 
REMARK    2  A    between atoms: C7_8  and  C8_9 
REMARK    3  A    between atoms: C8_9  and  N1_10 
REMARK       I    between atoms: N1_10  and  C9_11 
REMARK    4  A    between atoms: C9_11  and  C10_13 
ROOT
HETATM    1  C10 UNK   900     117.492 -66.340-283.285  1.00  0.00     0.155 C 
HETATM    2  N2  UNK   900     117.525 -66.437-281.698  1.00  0.00    -0.203 NA
HETATM    3  C11 UNK   900     118.315 -65.637-280.803  1.00  0.00     0.234 C 
HETATM    4  O3  UNK   900     118.054 -64.434-280.518  1.00  0.00    -0.274 OA
HETATM    5  C12 UNK   900     119.590 -66.322-280.519  1.00  0.00     0.034 C 
HETATM    6  C13 UNK   900     120.671 -66.065-279.693  1.00  0.00     0.000 C 
HETATM    7  C14 UNK   900     121.901 -66.534-280.109  1.00  0.00    -0.001 C 
HETATM    8  C15 UNK   900     121.960 -67.483-281.123  1.00  0.00    -0.004 C 
HETATM    9  C16 UNK   900     120.774 -68.037-281.587  1.00  0.00    -0.020 C 
HETATM   10  C17 UNK   900     119.631 -67.241-281.572  1.00  0.00     0.074 C 
HETATM   11  C18 UNK   900     118.154 -67.801-281.374  1.00  0.00     0.121 C 
HETATM   12  S1  UNK   900     118.004 -68.606-283.126  1.00  0.00    -0.124 SA
HETATM   13  C19 UNK   900     116.490 -67.667-283.416  1.00  0.00     0.063 C 
HETATM   14  C20 UNK   900     115.549 -67.572-282.314  1.00  0.00     0.013 C 
HETATM   15  C21 UNK   900     116.030 -67.741-284.799  1.00  0.00     0.013 C 
ENDROOT
BRANCH   1  16
HETATM   16  C9  UNK   900     116.246 -65.274-283.229  1.00  0.00     0.268 C 
HETATM   17  N1  UNK   900     116.853 -63.980-283.069  1.00  0.00    -0.232 NA
HETATM   18  O2  UNK   900     115.491 -65.324-284.222  1.00  0.00    -0.269 OA
BRANCH  17  19
HETATM   19  C8  UNK   900     116.101 -62.790-283.421  1.00  0.00     0.157 C 
BRANCH  19  20
HETATM   20  C7  UNK   900     115.100 -62.430-282.383  1.00  0.00     0.025 C 
HETATM   21  C2  UNK   900     114.020 -61.660-282.770  1.00  0.00     0.092 C 
HETATM   22  C3  UNK   900     113.349 -60.935-281.796  1.00  0.00     0.024 C 
HETATM   23  C4  UNK   900     113.470 -61.238-280.460  1.00  0.00     0.002 C 
HETATM   24  C5  UNK   900     114.572 -62.011-280.112  1.00  0.00    -0.000 C 
HETATM   25  C6  UNK   900     115.456 -62.481-281.054  1.00  0.00    -0.000 C 
BRANCH  21  26
HETATM   26  O1  UNK   900     113.876 -61.237-284.078  1.00  0.00    -0.328 OA
HETATM   27  C1  UNK   900     113.916 -59.865-284.379  1.00  0.00     0.181 C 
ENDBRANCH  21  26
ENDBRANCH  19  20
ENDBRANCH  17  19
ENDBRANCH   1  16
TORSDOF 4
ENDMDL
MODEL 8
REMARK VINA RESULT:      -5.1     30.106     31.924
REMARK  4 active torsions:
REMARK  status: ('A' for Active; 'I' for Inactive)
REMARK    1  A    between atoms: O1_2  and  C2_3 
REMARK    2  A    between atoms: C7_8  and  C8_9 
REMARK    3  A    between atoms: C8_9  and  N1_10 
REMARK       I    between atoms: N1_10  and  C9_11 
REMARK    4  A    between atoms: C9_11  and  C10_13 
ROOT
HETATM    1  C10 UNK   900      86.434 -77.631-251.232  1.00  0.00     0.155 C 
HETATM    2  N2  UNK   900      87.052 -77.400-252.680  1.00  0.00    -0.203 NA
HETATM    3  C11 UNK   900      87.082 -76.166-253.416  1.00  0.00     0.234 C 
HETATM    4  O3  UNK   900      87.865 -75.210-253.155  1.00  0.00    -0.274 OA
HETATM    5  C12 UNK   900      85.900 -76.083-254.294  1.00  0.00     0.034 C 
HETATM    6  C13 UNK   900      85.459 -75.187-255.252  1.00  0.00     0.000 C 
HETATM    7  C14 UNK   900      84.093 -75.072-255.420  1.00  0.00    -0.001 C 
HETATM    8  C15 UNK   900      83.258 -76.046-254.885  1.00  0.00    -0.004 C 
HETATM    9  C16 UNK   900      83.831 -77.180-254.323  1.00  0.00    -0.020 C 
HETATM   10  C17 UNK   900      85.073 -77.047-253.708  1.00  0.00     0.074 C 
HETATM   11  C18 UNK   900      86.167 -78.202-253.646  1.00  0.00     0.121 C 
HETATM   12  S1  UNK   900      85.241 -79.292-252.345  1.00  0.00    -0.124 SA
HETATM   13  C19 UNK   900      86.712 -79.274-251.298  1.00  0.00     0.063 C 
HETATM   14  C20 UNK   900      87.995 -79.440-251.958  1.00  0.00     0.013 C 
HETATM   15  C21 UNK   900      86.470 -79.820-249.967  1.00  0.00     0.013 C 
ENDROOT
BRANCH   1  16
HETATM   16  C9  UNK   900      87.880 -77.310-250.525  1.00  0.00     0.268 C 
HETATM   17  N1  UNK   900      87.799 -75.941-250.090  1.00  0.00    -0.232 NA
HETATM   18  O2  UNK   900      88.173 -78.088-249.594  1.00  0.00    -0.269 OA
BRANCH  17  19
HETATM   19  C8  UNK   900      88.701 -75.468-249.056  1.00  0.00     0.157 C 
BRANCH  19  20
HETATM   20  C7  UNK   900      89.951 -74.893-249.620  1.00  0.00     0.025 C 
HETATM   21  C2  UNK   900      91.128 -75.586-249.415  1.00  0.00     0.092 C 
HETATM   22  C3  UNK   900      92.324 -74.887-249.501  1.00  0.00     0.024 C 
HETATM   23  C4  UNK   900      92.403 -73.669-250.134  1.00  0.00     0.002 C 
HETATM   24  C5  UNK   900      91.197 -73.002-250.317  1.00  0.00    -0.000 C 
HETATM   25  C6  UNK   900      89.997 -73.552-249.932  1.00  0.00    -0.000 C 
BRANCH  21  26
HETATM   26  O1  UNK   900      91.144 -76.773-248.707  1.00  0.00    -0.328 OA
HETATM   27  C1  UNK   900      91.627 -77.944-249.315  1.00  0.00     0.181 C 
ENDBRANCH  21  26
ENDBRANCH  19  20
ENDBRANCH  17  19
ENDBRANCH   1  16
TORSDOF 4
ENDMDL
MODEL 9
REMARK VINA RESULT:      -5.0     19.052     21.669
REMARK  4 active torsions:
REMARK  status: ('A' for Active; 'I' for Inactive)
REMARK    1  A    between atoms: O1_2  and  C2_3 
REMARK    2  A    between atoms: C7_8  and  C8_9 
REMARK    3  A    between atoms: C8_9  and  N1_10 
REMARK       I    between atoms: N1_10  and  C9_11 
REMARK    4  A    between atoms: C9_11  and  C10_13 
ROOT
HETATM    1  C10 UNK   900      91.170 -62.992-275.945  1.00  0.00     0.155 C 
HETATM    2  N2  UNK   900      89.762 -62.261-275.827  1.00  0.00    -0.203 NA
HETATM    3  C11 UNK   900      89.032 -61.989-274.619  1.00  0.00     0.234 C 
HETATM    4  O3  UNK   900      89.342 -61.078-273.800  1.00  0.00    -0.274 OA
HETATM    5  C12 UNK   900      88.085 -63.088-274.353  1.00  0.00     0.034 C 
HETATM    6  C13 UNK   900      87.105 -63.321-273.404  1.00  0.00     0.000 C 
HETATM    7  C14 UNK   900      86.856 -64.637-273.071  1.00  0.00    -0.001 C 
HETATM    8  C15 UNK   900      87.338 -65.649-273.894  1.00  0.00    -0.004 C 
HETATM    9  C16 UNK   900      87.930 -65.301-275.102  1.00  0.00    -0.020 C 
HETATM   10  C17 UNK   900      88.618 -64.092-275.167  1.00  0.00     0.074 C 
HETATM   11  C18 UNK   900      88.742 -63.204-276.483  1.00  0.00     0.121 C 
HETATM   12  S1  UNK   900      89.983 -64.370-277.400  1.00  0.00    -0.124 SA
HETATM   13  C19 UNK   900      91.116 -62.980-277.612  1.00  0.00     0.063 C 
HETATM   14  C20 UNK   900      90.533 -61.704-277.988  1.00  0.00     0.013 C 
HETATM   15  C21 UNK   900      92.429 -63.386-278.102  1.00  0.00     0.013 C 
ENDROOT
BRANCH   1  16
HETATM   16  C9  UNK   900      91.962 -61.559-275.857  1.00  0.00     0.268 C 
HETATM   17  N1  UNK   900      92.212 -61.343-274.456  1.00  0.00    -0.232 NA
HETATM   18  O2  UNK   900      93.007 -61.514-276.537  1.00  0.00    -0.269 OA
BRANCH  17  19
HETATM   19  C8  UNK   900      93.257 -60.421-274.052  1.00  0.00     0.157 C 
BRANCH  19  20
HETATM   20  C7  UNK   900      92.888 -59.004-274.308  1.00  0.00     0.025 C 
HETATM   21  C2  UNK   900      93.867 -58.162-274.798  1.00  0.00     0.092 C 
HETATM   22  C3  UNK   900      93.711 -56.796-274.609  1.00  0.00     0.024 C 
HETATM   23  C4  UNK   900      92.489 -56.245-274.307  1.00  0.00     0.002 C 
HETATM   24  C5  UNK   900      91.533 -57.125-273.813  1.00  0.00    -0.000 C 
HETATM   25  C6  UNK   900      91.783 -58.470-273.683  1.00  0.00    -0.000 C 
BRANCH  21  26
HETATM   26  O1  UNK   900      95.148 -58.621-275.041  1.00  0.00    -0.328 OA
HETATM   27  C1  UNK   900      95.626 -58.700-276.360  1.00  0.00     0.181 C 
ENDBRANCH  21  26
ENDBRANCH  19  20
ENDBRANCH  17  19
ENDBRANCH   1  16
TORSDOF 4
ENDMDL
