MODEL 1
REMARK VINA RESULT:      -5.2      0.000      0.000
REMARK  6 active torsions:
REMARK  status: ('A' for Active; 'I' for Inactive)
REMARK    1  A    between atoms: O1_2  and  C2_3 
REMARK    2  A    between atoms: C7_8  and  O2_9 
REMARK    3  A    between atoms: N1_14  and  C11_15 
REMARK    4  A    between atoms: C11_15  and  C12_16 
REMARK    5  A    between atoms: C12_16  and  C13_18 
REMARK    6  A    between atoms: N2_26  and  S1_27 
ROOT
HETATM    1  C2  UNK   900     103.284 -86.324-255.682  1.00  0.00     0.116 C 
HETATM    2  C3  UNK   900     102.296 -86.469-254.717  1.00  0.00     0.026 C 
HETATM    3  C4  UNK   900     101.394 -85.452-254.433  1.00  0.00     0.000 C 
HETATM    4  C5  UNK   900     101.498 -84.272-255.160  1.00  0.00    -0.011 C 
HETATM    5  C6  UNK   900     102.309 -84.246-256.276  1.00  0.00     0.022 C 
HETATM    6  C7  UNK   900     103.195 -85.264-256.572  1.00  0.00     0.116 C 
HETATM    7  C9  UNK   900     100.769 -82.997-254.990  1.00  0.00     0.115 C 
HETATM    8  C10 UNK   900     100.965 -82.459-253.615  1.00  0.00     0.242 C 
HETATM    9  O3  UNK   900     100.730 -81.219-253.492  1.00  0.00    -0.272 OA
HETATM   10  N1  UNK   900     100.766 -83.124-252.361  1.00  0.00    -0.290 N 
HETATM   11  C22 UNK   900     100.573 -84.532-252.210  1.00  0.00     0.079 C 
HETATM   12  C23 UNK   900     100.862 -85.515-253.065  1.00  0.00     0.018 C 
ENDROOT
BRANCH  10  13
HETATM   13  C11 UNK   900     101.146 -82.449-251.157  1.00  0.00     0.178 C 
BRANCH  13  14
HETATM   14  C12 UNK   900     102.127 -83.167-250.332  1.00  0.00     0.196 C 
HETATM   15  O4  UNK   900     101.969 -83.061-249.076  1.00  0.00    -0.289 OA
BRANCH  14  16
HETATM   16  C13 UNK   900     103.531 -83.091-250.761  1.00  0.00     0.036 C 
HETATM   17  C14 UNK   900     103.909 -82.639-252.008  1.00  0.00     0.004 C 
HETATM   18  C15 UNK   900     105.147 -82.988-252.520  1.00  0.00     0.018 C 
HETATM   19  C16 UNK   900     106.057 -83.668-251.718  1.00  0.00     0.066 C 
HETATM   20  C17 UNK   900     105.808 -83.662-250.355  1.00  0.00    -0.004 C 
HETATM   21  N2  UNK   900     107.176 -84.512-252.005  1.00  0.00    -0.257 N 
HETATM   22  C18 UNK   900     104.569 -83.280-249.856  1.00  0.00     0.000 C 
HETATM   23  C19 UNK   900     107.111 -83.914-249.707  1.00  0.00     0.053 C 
HETATM   24  C20 UNK   900     107.792 -84.813-250.721  1.00  0.00     0.123 C 
BRANCH  21  25
HETATM   25  S1  UNK   900     107.927 -84.516-253.570  1.00  0.00     0.248 S 
HETATM   26  C21 UNK   900     106.841 -85.248-254.779  1.00  0.00     0.164 C 
HETATM   27  O5  UNK   900     109.205 -85.305-253.564  1.00  0.00    -0.204 OA
HETATM   28  O6  UNK   900     108.253 -83.089-253.908  1.00  0.00    -0.204 OA
ENDBRANCH  21  25
ENDBRANCH  14  16
ENDBRANCH  13  14
ENDBRANCH  10  13
BRANCH   6  29
HETATM   29  O2  UNK   900     103.732 -85.346-257.858  1.00  0.00    -0.326 OA
HETATM   30  C8  UNK   900     102.856 -85.562-258.958  1.00  0.00     0.181 C 
ENDBRANCH   6  29
BRANCH   1  31
HETATM   31  O1  UNK   900     103.866 -87.487-256.197  1.00  0.00    -0.326 OA
HETATM   32  C1  UNK   900     104.412 -88.476-255.341  1.00  0.00     0.181 C 
ENDBRANCH   1  31
TORSDOF 6
ENDMDL
MODEL 2
REMARK VINA RESULT:      -4.8     31.633     34.592
REMARK  6 active torsions:
REMARK  status: ('A' for Active; 'I' for Inactive)
REMARK    1  A    between atoms: O1_2  and  C2_3 
REMARK    2  A    between atoms: C7_8  and  O2_9 
REMARK    3  A    between atoms: N1_14  and  C11_15 
REMARK    4  A    between atoms: C11_15  and  C12_16 
REMARK    5  A    between atoms: C12_16  and  C13_18 
REMARK    6  A    between atoms: N2_26  and  S1_27 
ROOT
HETATM    1  C2  UNK   900      93.588 -55.896-259.272  1.00  0.00     0.116 C 
HETATM    2  C3  UNK   900      93.022 -55.281-260.382  1.00  0.00     0.026 C 
HETATM    3  C4  UNK   900      93.455 -55.556-261.673  1.00  0.00     0.000 C 
HETATM    4  C5  UNK   900      94.477 -56.484-261.829  1.00  0.00    -0.011 C 
HETATM    5  C6  UNK   900      94.842 -57.262-260.748  1.00  0.00     0.022 C 
HETATM    6  C7  UNK   900      94.399 -57.003-259.466  1.00  0.00     0.116 C 
HETATM    7  C9  UNK   900      95.215 -56.874-263.050  1.00  0.00     0.115 C 
HETATM    8  C10 UNK   900      95.861 -55.687-263.674  1.00  0.00     0.242 C 
HETATM    9  O3  UNK   900      96.816 -55.957-264.464  1.00  0.00    -0.272 OA
HETATM   10  N1  UNK   900      95.266 -54.433-264.031  1.00  0.00    -0.290 N 
HETATM   11  C22 UNK   900      93.967 -54.002-263.618  1.00  0.00     0.079 C 
HETATM   12  C23 UNK   900      93.216 -54.451-262.611  1.00  0.00     0.018 C 
ENDROOT
BRANCH  10  13
HETATM   13  C11 UNK   900      96.114 -53.379-264.501  1.00  0.00     0.178 C 
BRANCH  13  14
HETATM   14  C12 UNK   900      96.540 -53.508-265.901  1.00  0.00     0.196 C 
HETATM   15  O4  UNK   900      97.795 -53.552-266.090  1.00  0.00    -0.289 OA
BRANCH  14  16
HETATM   16  C13 UNK   900      95.820 -52.690-266.888  1.00  0.00     0.036 C 
HETATM   17  C14 UNK   900      94.867 -51.757-266.535  1.00  0.00     0.004 C 
HETATM   18  C15 UNK   900      93.930 -51.346-267.467  1.00  0.00     0.018 C 
HETATM   19  C16 UNK   900      94.043 -51.763-268.788  1.00  0.00     0.066 C 
HETATM   20  C17 UNK   900      95.266 -52.289-269.170  1.00  0.00    -0.004 C 
HETATM   21  N2  UNK   900      93.102 -51.890-269.859  1.00  0.00    -0.257 N 
HETATM   22  C18 UNK   900      96.209 -52.670-268.223  1.00  0.00     0.000 C 
HETATM   23  C19 UNK   900      95.334 -52.124-270.636  1.00  0.00     0.053 C 
HETATM   24  C20 UNK   900      93.878 -52.266-271.032  1.00  0.00     0.123 C 
BRANCH  21  25
HETATM   25  S1  UNK   900      91.568 -51.078-269.815  1.00  0.00     0.248 S 
HETATM   26  C21 UNK   900      90.699 -51.310-271.353  1.00  0.00     0.164 C 
HETATM   27  O5  UNK   900      91.735 -49.601-269.600  1.00  0.00    -0.204 OA
HETATM   28  O6  UNK   900      90.801 -51.642-268.652  1.00  0.00    -0.204 OA
ENDBRANCH  21  25
ENDBRANCH  14  16
ENDBRANCH  13  14
ENDBRANCH  10  13
BRANCH   6  29
HETATM   29  O2  UNK   900      94.520 -57.995-258.491  1.00  0.00    -0.326 OA
HETATM   30  C8  UNK   900      95.696 -58.036-257.691  1.00  0.00     0.181 C 
ENDBRANCH   6  29
BRANCH   1  31
HETATM   31  O1  UNK   900      92.851 -55.896-258.083  1.00  0.00    -0.326 OA
HETATM   32  C1  UNK   900      93.208 -55.058-256.997  1.00  0.00     0.181 C 
ENDBRANCH   1  31
TORSDOF 6
ENDMDL
MODEL 3
REMARK VINA RESULT:      -4.8     22.821     25.234
REMARK  6 active torsions:
REMARK  status: ('A' for Active; 'I' for Inactive)
REMARK    1  A    between atoms: O1_2  and  C2_3 
REMARK    2  A    between atoms: C7_8  and  O2_9 
REMARK    3  A    between atoms: N1_14  and  C11_15 
REMARK    4  A    between atoms: C11_15  and  C12_16 
REMARK    5  A    between atoms: C12_16  and  C13_18 
REMARK    6  A    between atoms: N2_26  and  S1_27 
ROOT
HETATM    1  C2  UNK   900      92.597 -87.410-276.111  1.00  0.00     0.116 C 
HETATM    2  C3  UNK   900      92.858 -86.704-277.279  1.00  0.00     0.026 C 
HETATM    3  C4  UNK   900      93.887 -85.776-277.359  1.00  0.00     0.000 C 
HETATM    4  C5  UNK   900      94.670 -85.576-276.229  1.00  0.00    -0.011 C 
HETATM    5  C6  UNK   900      94.558 -86.462-275.176  1.00  0.00     0.022 C 
HETATM    6  C7  UNK   900      93.546 -87.399-275.101  1.00  0.00     0.116 C 
HETATM    7  C9  UNK   900      95.735 -84.579-275.986  1.00  0.00     0.115 C 
HETATM    8  C10 UNK   900      95.212 -83.198-276.173  1.00  0.00     0.242 C 
HETATM    9  O3  UNK   900      95.902 -82.290-275.617  1.00  0.00    -0.272 OA
HETATM   10  N1  UNK   900      94.500 -82.657-277.293  1.00  0.00    -0.290 N 
HETATM   11  C22 UNK   900      93.940 -83.436-278.353  1.00  0.00     0.079 C 
HETATM   12  C23 UNK   900      93.654 -84.739-278.374  1.00  0.00     0.018 C 
ENDROOT
BRANCH  10  13
HETATM   13  C11 UNK   900      93.974 -81.329-277.198  1.00  0.00     0.178 C 
BRANCH  13  14
HETATM   14  C12 UNK   900      92.538 -81.255-276.901  1.00  0.00     0.196 C 
HETATM   15  O4  UNK   900      91.805 -80.827-277.847  1.00  0.00    -0.289 OA
BRANCH  14  16
HETATM   16  C13 UNK   900      92.163 -80.733-275.579  1.00  0.00     0.036 C 
HETATM   17  C14 UNK   900      92.707 -81.210-274.405  1.00  0.00     0.004 C 
HETATM   18  C15 UNK   900      92.035 -81.021-273.210  1.00  0.00     0.018 C 
HETATM   19  C16 UNK   900      90.894 -80.228-273.179  1.00  0.00     0.066 C 
HETATM   20  C17 UNK   900      90.683 -79.401-274.271  1.00  0.00    -0.004 C 
HETATM   21  N2  UNK   900      89.773 -80.157-272.292  1.00  0.00    -0.257 N 
HETATM   22  C18 UNK   900      91.388 -79.586-275.454  1.00  0.00     0.000 C 
HETATM   23  C19 UNK   900      89.808 -78.313-273.789  1.00  0.00     0.053 C 
HETATM   24  C20 UNK   900      88.974 -79.027-272.743  1.00  0.00     0.123 C 
BRANCH  21  25
HETATM   25  S1  UNK   900      89.838 -80.842-270.698  1.00  0.00     0.248 S 
HETATM   26  C21 UNK   900      88.394 -80.379-269.763  1.00  0.00     0.164 C 
HETATM   27  O5  UNK   900      91.046 -80.365-269.944  1.00  0.00    -0.204 OA
HETATM   28  O6  UNK   900      89.940 -82.333-270.861  1.00  0.00    -0.204 OA
ENDBRANCH  21  25
ENDBRANCH  14  16
ENDBRANCH  13  14
ENDBRANCH  10  13
BRANCH   6  29
HETATM   29  O2  UNK   900      93.673 -88.467-274.211  1.00  0.00    -0.326 OA
HETATM   30  C8  UNK   900      94.737 -89.394-274.392  1.00  0.00     0.181 C 
ENDBRANCH   6  29
BRANCH   1  31
HETATM   31  O1  UNK   900      91.851 -88.588-276.217  1.00  0.00    -0.326 OA
HETATM   32  C1  UNK   900      90.593 -88.606-276.871  1.00  0.00     0.181 C 
ENDBRANCH   1  31
TORSDOF 6
ENDMDL
MODEL 4
REMARK VINA RESULT:      -4.6     24.221     27.236
REMARK  6 active torsions:
REMARK  status: ('A' for Active; 'I' for Inactive)
REMARK    1  A    between atoms: O1_2  and  C2_3 
REMARK    2  A    between atoms: C7_8  and  O2_9 
REMARK    3  A    between atoms: N1_14  and  C11_15 
REMARK    4  A    between atoms: C11_15  and  C12_16 
REMARK    5  A    between atoms: C12_16  and  C13_18 
REMARK    6  A    between atoms: N2_26  and  S1_27 
ROOT
HETATM    1  C2  UNK   900     119.940 -78.142-275.338  1.00  0.00     0.116 C 
HETATM    2  C3  UNK   900     120.739 -77.077-275.733  1.00  0.00     0.026 C 
HETATM    3  C4  UNK   900     122.028 -76.907-275.245  1.00  0.00     0.000 C 
HETATM    4  C5  UNK   900     122.511 -77.851-274.347  1.00  0.00    -0.011 C 
HETATM    5  C6  UNK   900     121.805 -79.024-274.170  1.00  0.00     0.022 C 
HETATM    6  C7  UNK   900     120.530 -79.204-274.669  1.00  0.00     0.116 C 
HETATM    7  C9  UNK   900     123.774 -77.858-273.579  1.00  0.00     0.115 C 
HETATM    8  C10 UNK   900     123.883 -76.635-272.737  1.00  0.00     0.242 C 
HETATM    9  O3  UNK   900     124.699 -76.728-271.770  1.00  0.00    -0.272 OA
HETATM   10  N1  UNK   900     123.743 -75.265-273.131  1.00  0.00    -0.290 N 
HETATM   11  C22 UNK   900     123.219 -74.831-274.388  1.00  0.00     0.079 C 
HETATM   12  C23 UNK   900     122.474 -75.507-275.265  1.00  0.00     0.018 C 
ENDROOT
BRANCH  10  13
HETATM   13  C11 UNK   900     123.757 -74.253-272.118  1.00  0.00     0.178 C 
BRANCH  13  14
HETATM   14  C12 UNK   900     122.433 -73.735-271.747  1.00  0.00     0.196 C 
HETATM   15  O4  UNK   900     122.428 -72.590-271.196  1.00  0.00    -0.289 OA
BRANCH  14  16
HETATM   16  C13 UNK   900     121.499 -74.691-271.136  1.00  0.00     0.036 C 
HETATM   17  C14 UNK   900     121.367 -74.841-269.771  1.00  0.00     0.004 C 
HETATM   18  C15 UNK   900     120.833 -76.010-269.257  1.00  0.00     0.018 C 
HETATM   19  C16 UNK   900     120.300 -76.962-270.118  1.00  0.00     0.066 C 
HETATM   20  C17 UNK   900     120.028 -76.544-271.411  1.00  0.00    -0.004 C 
HETATM   21  N2  UNK   900     120.073 -78.370-270.003  1.00  0.00    -0.257 N 
HETATM   22  C18 UNK   900     120.547 -75.353-271.903  1.00  0.00     0.000 C 
HETATM   23  C19 UNK   900     119.003 -77.476-271.926  1.00  0.00     0.053 C 
HETATM   24  C20 UNK   900     119.371 -78.764-271.216  1.00  0.00     0.123 C 
BRANCH  21  25
HETATM   25  S1  UNK   900     120.042 -79.156-268.455  1.00  0.00     0.248 S 
HETATM   26  C21 UNK   900     118.813 -78.410-267.403  1.00  0.00     0.164 C 
HETATM   27  O5  UNK   900     121.369 -79.050-267.759  1.00  0.00    -0.204 OA
HETATM   28  O6  UNK   900     119.754 -80.610-268.704  1.00  0.00    -0.204 OA
ENDBRANCH  21  25
ENDBRANCH  14  16
ENDBRANCH  13  14
ENDBRANCH  10  13
BRANCH   6  29
HETATM   29  O2  UNK   900     120.009 -80.496-274.753  1.00  0.00    -0.326 OA
HETATM   30  C8  UNK   900     120.654 -81.447-275.592  1.00  0.00     0.181 C 
ENDBRANCH   6  29
BRANCH   1  31
HETATM   31  O1  UNK   900     118.856 -78.479-276.155  1.00  0.00    -0.326 OA
HETATM   32  C1  UNK   900     117.550 -78.004-275.875  1.00  0.00     0.181 C 
ENDBRANCH   1  31
TORSDOF 6
ENDMDL
MODEL 5
REMARK VINA RESULT:      -4.4     23.747     27.126
REMARK  6 active torsions:
REMARK  status: ('A' for Active; 'I' for Inactive)
REMARK    1  A    between atoms: O1_2  and  C2_3 
REMARK    2  A    between atoms: C7_8  and  O2_9 
REMARK    3  A    between atoms: N1_14  and  C11_15 
REMARK    4  A    between atoms: C11_15  and  C12_16 
REMARK    5  A    between atoms: C12_16  and  C13_18 
REMARK    6  A    between atoms: N2_26  and  S1_27 
ROOT
HETATM    1  C2  UNK   900      89.704 -82.652-279.398  1.00  0.00     0.116 C 
HETATM    2  C3  UNK   900      89.169 -82.720-278.118  1.00  0.00     0.026 C 
HETATM    3  C4  UNK   900      89.660 -81.944-277.076  1.00  0.00     0.000 C 
HETATM    4  C5  UNK   900      90.709 -81.075-277.354  1.00  0.00    -0.011 C 
HETATM    5  C6  UNK   900      91.048 -80.839-278.671  1.00  0.00     0.022 C 
HETATM    6  C7  UNK   900      90.547 -81.597-279.712  1.00  0.00     0.116 C 
HETATM    7  C9  UNK   900      91.503 -80.236-276.432  1.00  0.00     0.115 C 
HETATM    8  C10 UNK   900      92.146 -81.074-275.382  1.00  0.00     0.242 C 
HETATM    9  O3  UNK   900      93.138 -80.532-274.806  1.00  0.00    -0.272 OA
HETATM   10  N1  UNK   900      91.538 -82.037-274.513  1.00  0.00    -0.290 N 
HETATM   11  C22 UNK   900      90.214 -82.552-274.671  1.00  0.00     0.079 C 
HETATM   12  C23 UNK   900      89.434 -82.541-275.753  1.00  0.00     0.018 C 
ENDROOT
BRANCH  10  13
HETATM   13  C11 UNK   900      92.379 -82.826-273.665  1.00  0.00     0.178 C 
BRANCH  13  14
HETATM   14  C12 UNK   900      92.709 -84.157-274.191  1.00  0.00     0.196 C 
HETATM   15  O4  UNK   900      93.134 -84.995-273.335  1.00  0.00    -0.289 OA
BRANCH  14  16
HETATM   16  C13 UNK   900      93.430 -84.200-275.471  1.00  0.00     0.036 C 
HETATM   17  C14 UNK   900      94.798 -84.053-275.565  1.00  0.00     0.004 C 
HETATM   18  C15 UNK   900      95.367 -83.665-276.766  1.00  0.00     0.018 C 
HETATM   19  C16 UNK   900      94.575 -83.568-277.904  1.00  0.00     0.066 C 
HETATM   20  C17 UNK   900      93.336 -84.185-277.851  1.00  0.00    -0.004 C 
HETATM   21  N2  UNK   900      94.705 -82.838-279.128  1.00  0.00    -0.257 N 
HETATM   22  C18 UNK   900      92.792 -84.596-276.641  1.00  0.00     0.000 C 
HETATM   23  C19 UNK   900      92.954 -84.438-279.256  1.00  0.00     0.053 C 
HETATM   24  C20 UNK   900      93.594 -83.263-279.968  1.00  0.00     0.123 C 
BRANCH  21  25
HETATM   25  S1  UNK   900      96.234 -82.191-279.637  1.00  0.00     0.248 S 
HETATM   26  C21 UNK   900      96.079 -81.414-281.232  1.00  0.00     0.164 C 
HETATM   27  O5  UNK   900      97.275 -83.267-279.749  1.00  0.00    -0.204 OA
HETATM   28  O6  UNK   900      96.673 -81.215-278.582  1.00  0.00    -0.204 OA
ENDBRANCH  21  25
ENDBRANCH  14  16
ENDBRANCH  13  14
ENDBRANCH  10  13
BRANCH   6  29
HETATM   29  O2  UNK   900      90.653 -81.113-281.017  1.00  0.00    -0.326 OA
HETATM   30  C8  UNK   900      91.863 -80.487-281.425  1.00  0.00     0.181 C 
ENDBRANCH   6  29
BRANCH   1  31
HETATM   31  O1  UNK   900      88.920 -83.124-280.456  1.00  0.00    -0.326 OA
HETATM   32  C1  UNK   900      87.535 -82.832-280.532  1.00  0.00     0.181 C 
ENDBRANCH   1  31
TORSDOF 6
ENDMDL
MODEL 6
REMARK VINA RESULT:      -4.4     35.240     37.872
REMARK  6 active torsions:
REMARK  status: ('A' for Active; 'I' for Inactive)
REMARK    1  A    between atoms: O1_2  and  C2_3 
REMARK    2  A    between atoms: C7_8  and  O2_9 
REMARK    3  A    between atoms: N1_14  and  C11_15 
REMARK    4  A    between atoms: C11_15  and  C12_16 
REMARK    5  A    between atoms: C12_16  and  C13_18 
REMARK    6  A    between atoms: N2_26  and  S1_27 
ROOT
HETATM    1  C2  UNK   900      96.579 -56.414-280.112  1.00  0.00     0.116 C 
HETATM    2  C3  UNK   900      96.963 -55.128-279.754  1.00  0.00     0.026 C 
HETATM    3  C4  UNK   900      97.597 -54.860-278.549  1.00  0.00     0.000 C 
HETATM    4  C5  UNK   900      97.855 -55.931-277.701  1.00  0.00    -0.011 C 
HETATM    5  C6  UNK   900      97.702 -57.215-278.183  1.00  0.00     0.022 C 
HETATM    6  C7  UNK   900      97.087 -57.484-279.390  1.00  0.00     0.116 C 
HETATM    7  C9  UNK   900      98.393 -55.930-276.323  1.00  0.00     0.115 C 
HETATM    8  C10 UNK   900      97.539 -55.103-275.427  1.00  0.00     0.242 C 
HETATM    9  O3  UNK   900      97.671 -55.353-274.190  1.00  0.00    -0.272 OA
HETATM   10  N1  UNK   900      97.098 -53.752-275.611  1.00  0.00    -0.290 N 
HETATM   11  C22 UNK   900      97.204 -53.023-276.836  1.00  0.00     0.079 C 
HETATM   12  C23 UNK   900      97.384 -53.486-278.075  1.00  0.00     0.018 C 
ENDROOT
BRANCH  10  13
HETATM   13  C11 UNK   900      96.166 -53.199-274.675  1.00  0.00     0.178 C 
BRANCH  13  14
HETATM   14  C12 UNK   900      94.763 -53.236-275.108  1.00  0.00     0.196 C 
HETATM   15  O4  UNK   900      93.976 -52.462-274.481  1.00  0.00    -0.289 OA
BRANCH  14  16
HETATM   16  C13 UNK   900      94.193 -54.563-275.386  1.00  0.00     0.036 C 
HETATM   17  C14 UNK   900      93.708 -55.391-274.395  1.00  0.00     0.004 C 
HETATM   18  C15 UNK   900      93.599 -56.751-274.629  1.00  0.00     0.018 C 
HETATM   19  C16 UNK   900      93.840 -57.253-275.902  1.00  0.00     0.066 C 
HETATM   20  C17 UNK   900      93.847 -56.334-276.940  1.00  0.00    -0.004 C 
HETATM   21  N2  UNK   900      94.221 -58.543-276.391  1.00  0.00    -0.257 N 
HETATM   22  C18 UNK   900      93.927 -54.971-276.688  1.00  0.00     0.000 C 
HETATM   23  C19 UNK   900      93.554 -57.109-278.163  1.00  0.00     0.053 C 
HETATM   24  C20 UNK   900      94.192 -58.446-277.843  1.00  0.00     0.123 C 
BRANCH  21  25
HETATM   25  S1  UNK   900      94.037 -59.968-275.417  1.00  0.00     0.248 S 
HETATM   26  C21 UNK   900      92.313 -60.284-275.098  1.00  0.00     0.164 C 
HETATM   27  O5  UNK   900      94.731 -59.822-274.093  1.00  0.00    -0.204 OA
HETATM   28  O6  UNK   900      94.681 -61.102-276.166  1.00  0.00    -0.204 OA
ENDBRANCH  21  25
ENDBRANCH  14  16
ENDBRANCH  13  14
ENDBRANCH  10  13
BRANCH   6  29
HETATM   29  O2  UNK   900      97.257 -58.741-279.974  1.00  0.00    -0.326 OA
HETATM   30  C8  UNK   900      98.574 -59.199-280.253  1.00  0.00     0.181 C 
ENDBRANCH   6  29
BRANCH   1  31
HETATM   31  O1  UNK   900      96.339 -56.668-281.466  1.00  0.00    -0.326 OA
HETATM   32  C1  UNK   900      97.223 -56.200-282.470  1.00  0.00     0.181 C 
ENDBRANCH   1  31
TORSDOF 6
ENDMDL
MODEL 7
REMARK VINA RESULT:      -4.3      4.936      7.535
REMARK  6 active torsions:
REMARK  status: ('A' for Active; 'I' for Inactive)
REMARK    1  A    between atoms: O1_2  and  C2_3 
REMARK    2  A    between atoms: C7_8  and  O2_9 
REMARK    3  A    between atoms: N1_14  and  C11_15 
REMARK    4  A    between atoms: C11_15  and  C12_16 
REMARK    5  A    between atoms: C12_16  and  C13_18 
REMARK    6  A    between atoms: N2_26  and  S1_27 
ROOT
HETATM    1  C2  UNK   900     104.371 -90.953-256.545  1.00  0.00     0.116 C 
HETATM    2  C3  UNK   900     104.201 -90.135-255.435  1.00  0.00     0.026 C 
HETATM    3  C4  UNK   900     103.011 -89.459-255.197  1.00  0.00     0.000 C 
HETATM    4  C5  UNK   900     101.974 -89.635-256.106  1.00  0.00    -0.011 C 
HETATM    5  C6  UNK   900     102.075 -90.639-257.047  1.00  0.00     0.022 C 
HETATM    6  C7  UNK   900     103.252 -91.326-257.274  1.00  0.00     0.116 C 
HETATM    7  C9  UNK   900     100.662 -88.956-256.177  1.00  0.00     0.115 C 
HETATM    8  C10 UNK   900     100.839 -87.481-256.284  1.00  0.00     0.242 C 
HETATM    9  O3  UNK   900      99.834 -86.858-256.743  1.00  0.00    -0.272 OA
HETATM   10  N1  UNK   900     101.617 -86.614-255.450  1.00  0.00    -0.290 N 
HETATM   11  C22 UNK   900     102.578 -87.057-254.489  1.00  0.00     0.079 C 
HETATM   12  C23 UNK   900     103.188 -88.240-254.397  1.00  0.00     0.018 C 
ENDROOT
BRANCH  10  13
HETATM   13  C11 UNK   900     101.749 -85.237-255.823  1.00  0.00     0.178 C 
BRANCH  13  14
HETATM   14  C12 UNK   900     103.033 -84.887-256.443  1.00  0.00     0.196 C 
HETATM   15  O4  UNK   900     103.290 -83.645-256.506  1.00  0.00    -0.289 OA
BRANCH  14  16
HETATM   16  C13 UNK   900     103.406 -85.632-257.654  1.00  0.00     0.036 C 
HETATM   17  C14 UNK   900     102.799 -85.427-258.875  1.00  0.00     0.004 C 
HETATM   18  C15 UNK   900     102.856 -86.413-259.845  1.00  0.00     0.018 C 
HETATM   19  C16 UNK   900     103.644 -87.539-259.638  1.00  0.00     0.066 C 
HETATM   20  C17 UNK   900     104.588 -87.457-258.627  1.00  0.00    -0.004 C 
HETATM   21  N2  UNK   900     103.619 -88.865-260.176  1.00  0.00    -0.257 N 
HETATM   22  C18 UNK   900     104.534 -86.444-257.678  1.00  0.00     0.000 C 
HETATM   23  C19 UNK   900     105.618 -88.463-258.957  1.00  0.00     0.053 C 
HETATM   24  C20 UNK   900     104.795 -89.537-259.641  1.00  0.00     0.123 C 
BRANCH  21  25
HETATM   25  S1  UNK   900     102.760 -89.230-261.640  1.00  0.00     0.248 S 
HETATM   26  C21 UNK   900     101.005 -89.270-261.337  1.00  0.00     0.164 C 
HETATM   27  O5  UNK   900     103.162 -90.568-262.192  1.00  0.00    -0.204 OA
HETATM   28  O6  UNK   900     103.128 -88.173-262.644  1.00  0.00    -0.204 OA
ENDBRANCH  21  25
ENDBRANCH  14  16
ENDBRANCH  13  14
ENDBRANCH  10  13
BRANCH   6  29
HETATM   29  O2  UNK   900     103.211 -92.530-257.978  1.00  0.00    -0.326 OA
HETATM   30  C8  UNK   900     102.435 -92.607-259.168  1.00  0.00     0.181 C 
ENDBRANCH   6  29
BRANCH   1  31
HETATM   31  O1  UNK   900     105.399 -91.899-256.503  1.00  0.00    -0.326 OA
HETATM   32  C1  UNK   900     105.651 -92.660-255.334  1.00  0.00     0.181 C 
ENDBRANCH   1  31
TORSDOF 6
ENDMDL
MODEL 8
REMARK VINA RESULT:      -4.3     27.010     29.542
REMARK  6 active torsions:
REMARK  status: ('A' for Active; 'I' for Inactive)
REMARK    1  A    between atoms: O1_2  and  C2_3 
REMARK    2  A    between atoms: C7_8  and  O2_9 
REMARK    3  A    between atoms: N1_14  and  C11_15 
REMARK    4  A    between atoms: C11_15  and  C12_16 
REMARK    5  A    between atoms: C12_16  and  C13_18 
REMARK    6  A    between atoms: N2_26  and  S1_27 
ROOT
HETATM    1  C2  UNK   900      93.459 -55.929-259.316  1.00  0.00     0.116 C 
HETATM    2  C3  UNK   900      93.803 -55.209-258.178  1.00  0.00     0.026 C 
HETATM    3  C4  UNK   900      94.696 -55.705-257.238  1.00  0.00     0.000 C 
HETATM    4  C5  UNK   900      95.256 -56.954-257.473  1.00  0.00    -0.011 C 
HETATM    5  C6  UNK   900      95.102 -57.531-258.718  1.00  0.00     0.022 C 
HETATM    6  C7  UNK   900      94.228 -57.030-259.663  1.00  0.00     0.116 C 
HETATM    7  C9  UNK   900      96.124 -57.774-256.601  1.00  0.00     0.115 C 
HETATM    8  C10 UNK   900      95.454 -58.044-255.299  1.00  0.00     0.242 C 
HETATM    9  O3  UNK   900      95.918 -59.037-254.659  1.00  0.00    -0.272 OA
HETATM   10  N1  UNK   900      94.860 -57.108-254.391  1.00  0.00    -0.290 N 
HETATM   11  C22 UNK   900      94.585 -55.740-254.699  1.00  0.00     0.079 C 
HETATM   12  C23 UNK   900      94.486 -55.153-255.893  1.00  0.00     0.018 C 
ENDROOT
BRANCH  10  13
HETATM   13  C11 UNK   900      94.150 -57.609-253.252  1.00  0.00     0.178 C 
BRANCH  13  14
HETATM   14  C12 UNK   900      92.724 -57.260-253.214  1.00  0.00     0.196 C 
HETATM   15  O4  UNK   900      92.301 -56.807-252.105  1.00  0.00    -0.289 OA
BRANCH  14  16
HETATM   16  C13 UNK   900      91.797 -58.200-253.862  1.00  0.00     0.036 C 
HETATM   17  C14 UNK   900      92.223 -59.321-254.543  1.00  0.00     0.004 C 
HETATM   18  C15 UNK   900      91.394 -59.912-255.481  1.00  0.00     0.018 C 
HETATM   19  C16 UNK   900      90.088 -59.460-255.627  1.00  0.00     0.066 C 
HETATM   20  C17 UNK   900      89.584 -58.677-254.602  1.00  0.00    -0.004 C 
HETATM   21  N2  UNK   900      89.144 -59.523-256.701  1.00  0.00    -0.257 N 
HETATM   22  C18 UNK   900      90.426 -58.116-253.650  1.00  0.00     0.000 C 
HETATM   23  C19 UNK   900      88.114 -58.801-254.686  1.00  0.00     0.053 C 
HETATM   24  C20 UNK   900      87.903 -58.971-256.178  1.00  0.00     0.123 C 
BRANCH  21  25
HETATM   25  S1  UNK   900      89.337 -60.648-258.010  1.00  0.00     0.248 S 
HETATM   26  C21 UNK   900      89.390 -62.318-257.391  1.00  0.00     0.164 C 
HETATM   27  O5  UNK   900      90.611 -60.397-258.765  1.00  0.00    -0.204 OA
HETATM   28  O6  UNK   900      88.182 -60.438-258.948  1.00  0.00    -0.204 OA
ENDBRANCH  21  25
ENDBRANCH  14  16
ENDBRANCH  13  14
ENDBRANCH  10  13
BRANCH   6  29
HETATM   29  O2  UNK   900      94.357 -57.437-260.992  1.00  0.00    -0.326 OA
HETATM   30  C8  UNK   900      95.505 -57.031-261.729  1.00  0.00     0.181 C 
ENDBRANCH   6  29
BRANCH   1  31
HETATM   31  O1  UNK   900      92.907 -55.224-260.390  1.00  0.00    -0.326 OA
HETATM   32  C1  UNK   900      93.437 -53.975-260.800  1.00  0.00     0.181 C 
ENDBRANCH   1  31
TORSDOF 6
ENDMDL
MODEL 9
REMARK VINA RESULT:      -4.2     23.847     26.831
REMARK  6 active torsions:
REMARK  status: ('A' for Active; 'I' for Inactive)
REMARK    1  A    between atoms: O1_2  and  C2_3 
REMARK    2  A    between atoms: C7_8  and  O2_9 
REMARK    3  A    between atoms: N1_14  and  C11_15 
REMARK    4  A    between atoms: C11_15  and  C12_16 
REMARK    5  A    between atoms: C12_16  and  C13_18 
REMARK    6  A    between atoms: N2_26  and  S1_27 
ROOT
HETATM    1  C2  UNK   900      94.277 -61.362-246.766  1.00  0.00     0.116 C 
HETATM    2  C3  UNK   900      93.064 -61.020-247.351  1.00  0.00     0.026 C 
HETATM    3  C4  UNK   900      92.199 -61.980-247.860  1.00  0.00     0.000 C 
HETATM    4  C5  UNK   900      92.578 -63.313-247.758  1.00  0.00    -0.011 C 
HETATM    5  C6  UNK   900      93.651 -63.642-246.954  1.00  0.00     0.022 C 
HETATM    6  C7  UNK   900      94.503 -62.689-246.430  1.00  0.00     0.116 C 
HETATM    7  C9  UNK   900      91.930 -64.520-248.316  1.00  0.00     0.115 C 
HETATM    8  C10 UNK   900      91.803 -64.411-249.795  1.00  0.00     0.242 C 
HETATM    9  O3  UNK   900      91.640 -65.516-250.396  1.00  0.00    -0.272 OA
HETATM   10  N1  UNK   900      91.236 -63.344-250.565  1.00  0.00    -0.290 N 
HETATM   11  C22 UNK   900      90.903 -62.054-250.046  1.00  0.00     0.079 C 
HETATM   12  C23 UNK   900      91.328 -61.466-248.926  1.00  0.00     0.018 C 
ENDROOT
BRANCH  10  13
HETATM   13  C11 UNK   900      91.341 -63.394-251.993  1.00  0.00     0.178 C 
BRANCH  13  14
HETATM   14  C12 UNK   900      90.068 -63.245-252.710  1.00  0.00     0.196 C 
HETATM   15  O4  UNK   900      89.558 -64.322-253.149  1.00  0.00    -0.289 OA
BRANCH  14  16
HETATM   16  C13 UNK   900      89.966 -62.116-253.646  1.00  0.00     0.036 C 
HETATM   17  C14 UNK   900      88.793 -61.779-254.288  1.00  0.00     0.004 C 
HETATM   18  C15 UNK   900      88.837 -61.029-255.450  1.00  0.00     0.018 C 
HETATM   19  C16 UNK   900      90.046 -60.497-255.882  1.00  0.00     0.066 C 
HETATM   20  C17 UNK   900      91.074 -60.462-254.954  1.00  0.00    -0.004 C 
HETATM   21  N2  UNK   900      90.528 -60.069-257.159  1.00  0.00    -0.257 N 
HETATM   22  C18 UNK   900      91.002 -61.198-253.778  1.00  0.00     0.000 C 
HETATM   23  C19 UNK   900      91.995 -59.403-255.414  1.00  0.00     0.053 C 
HETATM   24  C20 UNK   900      91.844 -59.494-256.920  1.00  0.00     0.123 C 
BRANCH  21  25
HETATM   25  S1  UNK   900      89.439 -59.722-258.466  1.00  0.00     0.248 S 
HETATM   26  C21 UNK   900      88.249 -58.492-257.973  1.00  0.00     0.164 C 
HETATM   27  O5  UNK   900      88.683 -60.948-258.891  1.00  0.00    -0.204 OA
HETATM   28  O6  UNK   900      90.273 -59.255-259.626  1.00  0.00    -0.204 OA
ENDBRANCH  21  25
ENDBRANCH  14  16
ENDBRANCH  13  14
ENDBRANCH  10  13
BRANCH   6  29
HETATM   29  O2  UNK   900      95.347 -63.038-245.374  1.00  0.00    -0.326 OA
HETATM   30  C8  UNK   900      94.873 -63.942-244.383  1.00  0.00     0.181 C 
ENDBRANCH   6  29
BRANCH   1  31
HETATM   31  O1  UNK   900      94.881 -60.422-245.925  1.00  0.00    -0.326 OA
HETATM   32  C1  UNK   900      96.098 -59.791-246.284  1.00  0.00     0.181 C 
ENDBRANCH   1  31
TORSDOF 6
ENDMDL
