MODEL 1
REMARK VINA RESULT:      -6.0      0.000      0.000
REMARK  4 active torsions:
REMARK  status: ('A' for Active; 'I' for Inactive)
REMARK    1  A    between atoms: C1_2  and  C2_3 
REMARK    2  A    between atoms: C6_7  and  C7_8 
REMARK    3  A    between atoms: N3_20  and  C17_21 
REMARK    4  A    between atoms: C17_21  and  C18_22 
ROOT
HETATM    1  C7  UNK   900      88.751 -79.793-270.121  1.00  0.00     0.056 C 
HETATM    2  C8  UNK   900      89.799 -78.873-270.143  1.00  0.00     0.002 C 
HETATM    3  C9  UNK   900      90.105 -78.147-271.299  1.00  0.00    -0.004 C 
HETATM    4  C10 UNK   900      89.131 -78.243-272.301  1.00  0.00     0.108 C 
HETATM    5  N2  UNK   900      88.468 -79.419-272.496  1.00  0.00    -0.315 N 
HETATM    6  C11 UNK   900      88.132 -80.041-271.341  1.00  0.00     0.257 C 
HETATM    7  O1  UNK   900      87.491 -81.091-271.444  1.00  0.00    -0.267 OA
HETATM    8  C12 UNK   900      88.858 -80.174-273.692  1.00  0.00     0.106 C 
HETATM    9  C13 UNK   900      88.116 -79.464-274.959  1.00  0.00     0.045 C 
HETATM   10  C14 UNK   900      88.241 -77.942-274.455  1.00  0.00     0.008 C 
HETATM   11  C15 UNK   900      89.638 -77.631-273.705  1.00  0.00     0.047 C 
HETATM   12  C16 UNK   900      90.492 -78.991-274.003  1.00  0.00     0.104 C 
HETATM   13  N3  UNK   900      90.572 -79.225-275.336  1.00  0.00    -0.347 N 
HETATM   14  C24 UNK   900      89.405 -79.395-275.967  1.00  0.00     0.103 C 
ENDROOT
BRANCH   1  15
HETATM   15  C6  UNK   900      87.775 -79.676-269.006  1.00  0.00     0.005 C 
HETATM   16  C5  UNK   900      86.734 -78.755-269.071  1.00  0.00     0.000 C 
HETATM   17  C4  UNK   900      86.166 -78.213-267.919  1.00  0.00     0.000 C 
HETATM   18  C3  UNK   900      87.026 -78.088-266.832  1.00  0.00     0.002 C 
HETATM   19  C2  UNK   900      88.102 -78.958-266.685  1.00  0.00     0.021 C 
HETATM   20  C25 UNK   900      88.185 -79.912-267.690  1.00  0.00     0.002 C 
BRANCH  19  21
HETATM   21  C1  UNK   900      89.209 -78.642-265.802  1.00  0.00     0.122 C 
HETATM   22  N1  UNK   900      90.171 -78.164-265.432  1.00  0.00    -0.146 N 
ENDBRANCH  19  21
ENDBRANCH   1  15
BRANCH  13  23
HETATM   23  C17 UNK   900      91.777 -79.874-275.586  1.00  0.00     0.072 C 
BRANCH  23  24
HETATM   24  C18 UNK   900      91.778 -80.928-276.607  1.00  0.00     0.017 C 
HETATM   25  C19 UNK   900      91.815 -82.243-276.146  1.00  0.00     0.004 C 
HETATM   26  C20 UNK   900      92.790 -83.135-276.590  1.00  0.00     0.030 C 
HETATM   27  C21 UNK   900      93.735 -82.739-277.536  1.00  0.00     0.140 C 
HETATM   28  F1  UNK   900      95.073 -82.921-277.310  1.00  0.00    -0.204 F 
HETATM   29  C22 UNK   900      93.269 -81.706-278.347  1.00  0.00     0.030 C 
HETATM   30  C23 UNK   900      92.328 -80.790-277.877  1.00  0.00     0.004 C 
ENDBRANCH  23  24
ENDBRANCH  13  23
TORSDOF 4
ENDMDL
MODEL 2
REMARK VINA RESULT:      -6.0     34.359     37.026
REMARK  4 active torsions:
REMARK  status: ('A' for Active; 'I' for Inactive)
REMARK    1  A    between atoms: C1_2  and  C2_3 
REMARK    2  A    between atoms: C6_7  and  C7_8 
REMARK    3  A    between atoms: N3_20  and  C17_21 
REMARK    4  A    between atoms: C17_21  and  C18_22 
ROOT
HETATM    1  C7  UNK   900     112.048 -76.647-243.803  1.00  0.00     0.056 C 
HETATM    2  C8  UNK   900     112.678 -75.640-244.535  1.00  0.00     0.002 C 
HETATM    3  C9  UNK   900     112.481 -74.289-244.230  1.00  0.00    -0.004 C 
HETATM    4  C10 UNK   900     111.829 -74.074-243.010  1.00  0.00     0.108 C 
HETATM    5  N2  UNK   900     110.841 -74.924-242.607  1.00  0.00    -0.315 N 
HETATM    6  C11 UNK   900     111.118 -76.225-242.861  1.00  0.00     0.257 C 
HETATM    7  O1  UNK   900     110.285 -77.053-242.482  1.00  0.00    -0.267 OA
HETATM    8  C12 UNK   900     109.475 -74.395-242.700  1.00  0.00     0.106 C 
HETATM    9  C13 UNK   900     109.259 -73.420-241.411  1.00  0.00     0.045 C 
HETATM   10  C14 UNK   900     110.742 -72.801-241.360  1.00  0.00     0.008 C 
HETATM   11  C15 UNK   900     111.375 -72.537-242.824  1.00  0.00     0.047 C 
HETATM   12  C16 UNK   900     110.088 -72.788-243.799  1.00  0.00     0.104 C 
HETATM   13  N3  UNK   900     109.054 -71.984-243.443  1.00  0.00    -0.347 N 
HETATM   14  C24 UNK   900     108.592 -72.148-242.199  1.00  0.00     0.103 C 
ENDROOT
BRANCH   1  15
HETATM   15  C6  UNK   900     112.907 -77.749-243.296  1.00  0.00     0.005 C 
HETATM   16  C5  UNK   900     114.163 -77.477-242.762  1.00  0.00     0.000 C 
HETATM   17  C4  UNK   900     115.190 -78.419-242.797  1.00  0.00     0.000 C 
HETATM   18  C3  UNK   900     115.163 -79.292-243.880  1.00  0.00     0.002 C 
HETATM   19  C2  UNK   900     113.954 -79.618-244.488  1.00  0.00     0.021 C 
HETATM   20  C25 UNK   900     112.855 -79.011-243.896  1.00  0.00     0.002 C 
BRANCH  19  21
HETATM   21  C1  UNK   900     113.913 -80.207-245.813  1.00  0.00     0.122 C 
HETATM   22  N1  UNK   900     113.790 -80.994-246.623  1.00  0.00    -0.146 N 
ENDBRANCH  19  21
ENDBRANCH   1  15
BRANCH  13  23
HETATM   23  C17 UNK   900     108.323 -71.694-244.591  1.00  0.00     0.072 C 
BRANCH  23  24
HETATM   24  C18 UNK   900     108.093 -70.279-244.905  1.00  0.00     0.017 C 
HETATM   25  C19 UNK   900     108.850 -69.351-244.193  1.00  0.00     0.004 C 
HETATM   26  C20 UNK   900     108.243 -68.309-243.494  1.00  0.00     0.030 C 
HETATM   27  C21 UNK   900     106.857 -68.152-243.519  1.00  0.00     0.140 C 
HETATM   28  F1  UNK   900     106.143 -68.037-242.356  1.00  0.00    -0.204 F 
HETATM   29  C22 UNK   900     106.286 -68.687-244.672  1.00  0.00     0.030 C 
HETATM   30  C23 UNK   900     106.877 -69.759-245.338  1.00  0.00     0.004 C 
ENDBRANCH  23  24
ENDBRANCH  13  23
TORSDOF 4
ENDMDL
MODEL 3
REMARK VINA RESULT:      -6.0      3.520      9.120
REMARK  4 active torsions:
REMARK  status: ('A' for Active; 'I' for Inactive)
REMARK    1  A    between atoms: C1_2  and  C2_3 
REMARK    2  A    between atoms: C6_7  and  C7_8 
REMARK    3  A    between atoms: N3_20  and  C17_21 
REMARK    4  A    between atoms: C17_21  and  C18_22 
ROOT
HETATM    1  C7  UNK   900      90.927 -79.954-273.534  1.00  0.00     0.056 C 
HETATM    2  C8  UNK   900      91.465 -80.931-272.696  1.00  0.00     0.002 C 
HETATM    3  C9  UNK   900      90.734 -81.448-271.621  1.00  0.00    -0.004 C 
HETATM    4  C10 UNK   900      89.380 -81.093-271.634  1.00  0.00     0.108 C 
HETATM    5  N2  UNK   900      89.005 -79.854-272.064  1.00  0.00    -0.315 N 
HETATM    6  C11 UNK   900      89.695 -79.435-273.153  1.00  0.00     0.257 C 
HETATM    7  O1  UNK   900      89.376 -78.339-273.622  1.00  0.00    -0.267 OA
HETATM    8  C12 UNK   900      88.582 -78.920-271.014  1.00  0.00     0.106 C 
HETATM    9  C13 UNK   900      87.053 -79.322-270.617  1.00  0.00     0.045 C 
HETATM   10  C14 UNK   900      87.206 -80.916-270.759  1.00  0.00     0.008 C 
HETATM   11  C15 UNK   900      88.638 -81.468-270.251  1.00  0.00     0.047 C 
HETATM   12  C16 UNK   900      89.276 -80.146-269.536  1.00  0.00     0.104 C 
HETATM   13  N3  UNK   900      88.445 -79.673-268.574  1.00  0.00    -0.347 N 
HETATM   14  C24 UNK   900      87.230 -79.299-268.988  1.00  0.00     0.103 C 
ENDROOT
BRANCH   1  15
HETATM   15  C6  UNK   900      91.007 -80.202-274.997  1.00  0.00     0.005 C 
HETATM   16  C5  UNK   900      90.253 -81.214-275.584  1.00  0.00     0.000 C 
HETATM   17  C4  UNK   900      90.670 -81.849-276.754  1.00  0.00     0.000 C 
HETATM   18  C3  UNK   900      92.048 -81.933-276.929  1.00  0.00     0.002 C 
HETATM   19  C2  UNK   900      92.886 -80.972-276.371  1.00  0.00     0.021 C 
HETATM   20  C25 UNK   900      92.207 -79.977-275.680  1.00  0.00     0.002 C 
BRANCH  19  21
HETATM   21  C1  UNK   900      94.307 -81.214-276.212  1.00  0.00     0.122 C 
HETATM   22  N1  UNK   900      95.396 -81.021-275.952  1.00  0.00    -0.146 N 
ENDBRANCH  19  21
ENDBRANCH   1  15
BRANCH  13  23
HETATM   23  C17 UNK   900      89.226 -79.083-267.585  1.00  0.00     0.072 C 
BRANCH  23  24
HETATM   24  C18 UNK   900      88.638 -78.954-266.247  1.00  0.00     0.017 C 
HETATM   25  C19 UNK   900      88.306 -80.139-265.594  1.00  0.00     0.004 C 
HETATM   26  C20 UNK   900      87.022 -80.352-265.096  1.00  0.00     0.030 C 
HETATM   27  C21 UNK   900      86.043 -79.365-265.212  1.00  0.00     0.140 C 
HETATM   28  F1  UNK   900      84.817 -79.652-265.752  1.00  0.00    -0.204 F 
HETATM   29  C22 UNK   900      86.591 -78.086-265.291  1.00  0.00     0.030 C 
HETATM   30  C23 UNK   900      87.858 -77.878-265.833  1.00  0.00     0.004 C 
ENDBRANCH  23  24
ENDBRANCH  13  23
TORSDOF 4
ENDMDL
MODEL 4
REMARK VINA RESULT:      -5.7     32.873     35.617
REMARK  4 active torsions:
REMARK  status: ('A' for Active; 'I' for Inactive)
REMARK    1  A    between atoms: C1_2  and  C2_3 
REMARK    2  A    between atoms: C6_7  and  C7_8 
REMARK    3  A    between atoms: N3_20  and  C17_21 
REMARK    4  A    between atoms: C17_21  and  C18_22 
ROOT
HETATM    1  C7  UNK   900     118.995 -66.431-256.296  1.00  0.00     0.056 C 
HETATM    2  C8  UNK   900     119.535 -66.931-255.111  1.00  0.00     0.002 C 
HETATM    3  C9  UNK   900     118.816 -67.819-254.303  1.00  0.00    -0.004 C 
HETATM    4  C10 UNK   900     117.664 -68.332-254.913  1.00  0.00     0.108 C 
HETATM    5  N2  UNK   900     116.918 -67.540-255.734  1.00  0.00    -0.315 N 
HETATM    6  C11 UNK   900     117.667 -66.755-256.545  1.00  0.00     0.257 C 
HETATM    7  O1  UNK   900     117.055 -66.043-257.346  1.00  0.00    -0.267 OA
HETATM    8  C12 UNK   900     115.642 -67.076-255.177  1.00  0.00     0.106 C 
HETATM    9  C13 UNK   900     114.594 -68.318-255.306  1.00  0.00     0.045 C 
HETATM   10  C14 UNK   900     115.631 -69.507-254.997  1.00  0.00     0.008 C 
HETATM   11  C15 UNK   900     116.723 -69.124-253.869  1.00  0.00     0.047 C 
HETATM   12  C16 UNK   900     116.141 -67.707-253.302  1.00  0.00     0.104 C 
HETATM   13  N3  UNK   900     114.864 -67.853-252.868  1.00  0.00    -0.347 N 
HETATM   14  C24 UNK   900     113.981 -68.255-253.789  1.00  0.00     0.103 C 
ENDROOT
BRANCH   1  15
HETATM   15  C6  UNK   900     119.840 -66.530-257.515  1.00  0.00     0.005 C 
HETATM   16  C5  UNK   900     119.949 -65.453-258.389  1.00  0.00     0.000 C 
HETATM   17  C4  UNK   900     120.225 -65.637-259.743  1.00  0.00     0.000 C 
HETATM   18  C3  UNK   900     119.751 -66.823-260.293  1.00  0.00     0.002 C 
HETATM   19  C2  UNK   900     119.599 -67.954-259.496  1.00  0.00     0.021 C 
HETATM   20  C25 UNK   900     119.975 -67.757-258.175  1.00  0.00     0.002 C 
BRANCH  19  21
HETATM   21  C1  UNK   900     118.779 -69.071-259.925  1.00  0.00     0.122 C 
HETATM   22  N1  UNK   900     117.986 -69.884-259.888  1.00  0.00    -0.146 N 
ENDBRANCH  19  21
ENDBRANCH   1  15
BRANCH  13  23
HETATM   23  C17 UNK   900     114.659 -66.952-251.828  1.00  0.00     0.072 C 
BRANCH  23  24
HETATM   24  C18 UNK   900     114.655 -67.487-250.461  1.00  0.00     0.017 C 
HETATM   25  C19 UNK   900     114.053 -68.730-250.280  1.00  0.00     0.004 C 
HETATM   26  C20 UNK   900     113.045 -68.912-249.334  1.00  0.00     0.030 C 
HETATM   27  C21 UNK   900     112.638 -67.856-248.520  1.00  0.00     0.140 C 
HETATM   28  F1  UNK   900     111.315 -67.517-248.420  1.00  0.00    -0.204 F 
HETATM   29  C22 UNK   900     113.646 -66.911-248.339  1.00  0.00     0.030 C 
HETATM   30  C23 UNK   900     114.623 -66.704-249.312  1.00  0.00     0.004 C 
ENDBRANCH  23  24
ENDBRANCH  13  23
TORSDOF 4
ENDMDL
MODEL 5
REMARK VINA RESULT:      -5.6     10.002     11.622
REMARK  4 active torsions:
REMARK  status: ('A' for Active; 'I' for Inactive)
REMARK    1  A    between atoms: C1_2  and  C2_3 
REMARK    2  A    between atoms: C6_7  and  C7_8 
REMARK    3  A    between atoms: N3_20  and  C17_21 
REMARK    4  A    between atoms: C17_21  and  C18_22 
ROOT
HETATM    1  C7  UNK   900      89.370 -71.157-275.994  1.00  0.00     0.056 C 
HETATM    2  C8  UNK   900      88.426 -70.265-276.503  1.00  0.00     0.002 C 
HETATM    3  C9  UNK   900      88.114 -70.236-277.867  1.00  0.00    -0.004 C 
HETATM    4  C10 UNK   900      88.629 -71.321-278.587  1.00  0.00     0.108 C 
HETATM    5  N2  UNK   900      89.853 -71.832-278.268  1.00  0.00    -0.315 N 
HETATM    6  C11 UNK   900      90.070 -71.904-276.933  1.00  0.00     0.257 C 
HETATM    7  O1  UNK   900      91.143 -72.398-276.573  1.00  0.00    -0.267 OA
HETATM    8  C12 UNK   900      90.934 -71.517-279.208  1.00  0.00     0.106 C 
HETATM    9  C13 UNK   900      90.764 -72.529-280.476  1.00  0.00     0.045 C 
HETATM   10  C14 UNK   900      89.156 -72.550-280.520  1.00  0.00     0.008 C 
HETATM   11  C15 UNK   900      88.490 -71.116-280.181  1.00  0.00     0.047 C 
HETATM   12  C16 UNK   900      89.793 -70.130-280.178  1.00  0.00     0.104 C 
HETATM   13  N3  UNK   900      90.459 -70.212-281.356  1.00  0.00    -0.347 N 
HETATM   14  C24 UNK   900      90.933 -71.423-281.672  1.00  0.00     0.103 C 
ENDROOT
BRANCH   1  15
HETATM   15  C6  UNK   900      88.964 -71.967-274.816  1.00  0.00     0.005 C 
HETATM   16  C5  UNK   900      88.742 -73.335-274.941  1.00  0.00     0.000 C 
HETATM   17  C4  UNK   900      87.866 -74.013-274.094  1.00  0.00     0.000 C 
HETATM   18  C3  UNK   900      86.796 -73.262-273.617  1.00  0.00     0.002 C 
HETATM   19  C2  UNK   900      86.918 -71.884-273.467  1.00  0.00     0.021 C 
HETATM   20  C25 UNK   900      88.170 -71.396-273.814  1.00  0.00     0.002 C 
BRANCH  19  21
HETATM   21  C1  UNK   900      85.749 -71.036-273.336  1.00  0.00     0.122 C 
HETATM   22  N1  UNK   900      85.023 -70.186-273.543  1.00  0.00    -0.146 N 
ENDBRANCH  19  21
ENDBRANCH   1  15
BRANCH  13  23
HETATM   23  C17 UNK   900      91.049 -68.977-281.603  1.00  0.00     0.072 C 
BRANCH  23  24
HETATM   24  C18 UNK   900      92.230 -68.954-282.474  1.00  0.00     0.017 C 
HETATM   25  C19 UNK   900      93.466 -68.816-281.845  1.00  0.00     0.004 C 
HETATM   26  C20 UNK   900      94.354 -67.807-282.216  1.00  0.00     0.030 C 
HETATM   27  C21 UNK   900      94.038 -66.928-283.252  1.00  0.00     0.140 C 
HETATM   28  F1  UNK   900      94.113 -65.573-283.070  1.00  0.00    -0.204 F 
HETATM   29  C22 UNK   900      93.150 -67.491-284.167  1.00  0.00     0.030 C 
HETATM   30  C23 UNK   900      92.234 -68.467-283.777  1.00  0.00     0.004 C 
ENDBRANCH  23  24
ENDBRANCH  13  23
TORSDOF 4
ENDMDL
MODEL 6
REMARK VINA RESULT:      -5.6     39.768     41.392
REMARK  4 active torsions:
REMARK  status: ('A' for Active; 'I' for Inactive)
REMARK    1  A    between atoms: C1_2  and  C2_3 
REMARK    2  A    between atoms: C6_7  and  C7_8 
REMARK    3  A    between atoms: N3_20  and  C17_21 
REMARK    4  A    between atoms: C17_21  and  C18_22 
ROOT
HETATM    1  C7  UNK   900     121.620 -58.622-264.934  1.00  0.00     0.056 C 
HETATM    2  C8  UNK   900     120.829 -58.730-266.078  1.00  0.00     0.002 C 
HETATM    3  C9  UNK   900     120.885 -57.769-267.094  1.00  0.00    -0.004 C 
HETATM    4  C10 UNK   900     121.956 -56.876-266.968  1.00  0.00     0.108 C 
HETATM    5  N2  UNK   900     122.352 -56.457-265.732  1.00  0.00    -0.315 N 
HETATM    6  C11 UNK   900     122.348 -57.446-264.806  1.00  0.00     0.257 C 
HETATM    7  O1  UNK   900     122.738 -57.145-263.674  1.00  0.00    -0.267 OA
HETATM    8  C12 UNK   900     121.992 -55.077-265.386  1.00  0.00     0.106 C 
HETATM    9  C13 UNK   900     123.068 -54.109-266.136  1.00  0.00     0.045 C 
HETATM   10  C14 UNK   900     123.220 -54.964-267.490  1.00  0.00     0.008 C 
HETATM   11  C15 UNK   900     121.832 -55.628-267.984  1.00  0.00     0.047 C 
HETATM   12  C16 UNK   900     120.745 -54.916-266.994  1.00  0.00     0.104 C 
HETATM   13  N3  UNK   900     120.824 -53.566-267.087  1.00  0.00    -0.347 N 
HETATM   14  C24 UNK   900     122.005 -53.030-266.760  1.00  0.00     0.103 C 
ENDROOT
BRANCH   1  15
HETATM   15  C6  UNK   900     122.408 -59.820-264.544  1.00  0.00     0.005 C 
HETATM   16  C5  UNK   900     122.219 -60.416-263.300  1.00  0.00     0.000 C 
HETATM   17  C4  UNK   900     123.239 -61.128-262.671  1.00  0.00     0.000 C 
HETATM   18  C3  UNK   900     124.531 -60.693-262.949  1.00  0.00     0.002 C 
HETATM   19  C2  UNK   900     124.816 -60.077-264.164  1.00  0.00     0.021 C 
HETATM   20  C25 UNK   900     123.718 -59.978-265.008  1.00  0.00     0.002 C 
BRANCH  19  21
HETATM   21  C1  UNK   900     126.023 -59.293-264.344  1.00  0.00     0.122 C 
HETATM   22  N1  UNK   900     126.716 -58.484-264.738  1.00  0.00    -0.146 N 
ENDBRANCH  19  21
ENDBRANCH   1  15
BRANCH  13  23
HETATM   23  C17 UNK   900     119.557 -53.044-266.848  1.00  0.00     0.072 C 
BRANCH  23  24
HETATM   24  C18 UNK   900     119.378 -52.232-265.638  1.00  0.00     0.017 C 
HETATM   25  C19 UNK   900     119.703 -50.881-265.739  1.00  0.00     0.004 C 
HETATM   26  C20 UNK   900     120.600 -50.287-264.853  1.00  0.00     0.030 C 
HETATM   27  C21 UNK   900     121.171 -51.028-263.818  1.00  0.00     0.140 C 
HETATM   28  F1  UNK   900     122.528 -51.049-263.636  1.00  0.00    -0.204 F 
HETATM   29  C22 UNK   900     120.370 -52.102-263.434  1.00  0.00     0.030 C 
HETATM   30  C23 UNK   900     119.509 -52.719-264.341  1.00  0.00     0.004 C 
ENDBRANCH  23  24
ENDBRANCH  13  23
TORSDOF 4
ENDMDL
MODEL 7
REMARK VINA RESULT:      -5.4     18.897     20.580
REMARK  4 active torsions:
REMARK  status: ('A' for Active; 'I' for Inactive)
REMARK    1  A    between atoms: C1_2  and  C2_3 
REMARK    2  A    between atoms: C6_7  and  C7_8 
REMARK    3  A    between atoms: N3_20  and  C17_21 
REMARK    4  A    between atoms: C17_21  and  C18_22 
ROOT
HETATM    1  C7  UNK   900      89.698 -60.207-274.682  1.00  0.00     0.056 C 
HETATM    2  C8  UNK   900      90.530 -61.303-274.916  1.00  0.00     0.002 C 
HETATM    3  C9  UNK   900      91.916 -61.212-274.751  1.00  0.00    -0.004 C 
HETATM    4  C10 UNK   900      92.332 -60.042-274.104  1.00  0.00     0.108 C 
HETATM    5  N2  UNK   900      91.684 -58.865-274.340  1.00  0.00    -0.315 N 
HETATM    6  C11 UNK   900      90.338 -59.003-274.417  1.00  0.00     0.257 C 
HETATM    7  O1  UNK   900      89.685 -57.969-274.585  1.00  0.00    -0.267 OA
HETATM    8  C12 UNK   900      92.408 -57.899-275.173  1.00  0.00     0.106 C 
HETATM    9  C13 UNK   900      93.510 -57.181-274.211  1.00  0.00     0.045 C 
HETATM   10  C14 UNK   900      93.894 -58.467-273.325  1.00  0.00     0.008 C 
HETATM   11  C15 UNK   900      93.931 -59.840-274.177  1.00  0.00     0.047 C 
HETATM   12  C16 UNK   900      93.803 -59.291-275.710  1.00  0.00     0.104 C 
HETATM   13  N3  UNK   900      94.784 -58.395-275.982  1.00  0.00    -0.347 N 
HETATM   14  C24 UNK   900      94.799 -57.299-275.214  1.00  0.00     0.103 C 
ENDROOT
BRANCH   1  15
HETATM   15  C6  UNK   900      88.523 -60.430-273.800  1.00  0.00     0.005 C 
HETATM   16  C5  UNK   900      88.629 -60.250-272.424  1.00  0.00     0.000 C 
HETATM   17  C4  UNK   900      87.810 -60.943-271.533  1.00  0.00     0.000 C 
HETATM   18  C3  UNK   900      87.402 -62.205-271.954  1.00  0.00     0.002 C 
HETATM   19  C2  UNK   900      87.277 -62.484-273.312  1.00  0.00     0.021 C 
HETATM   20  C25 UNK   900      87.574 -61.403-274.131  1.00  0.00     0.002 C 
BRANCH  19  21
HETATM   21  C1  UNK   900      87.221 -63.849-273.797  1.00  0.00     0.122 C 
HETATM   22  N1  UNK   900      87.317 -64.982-273.799  1.00  0.00    -0.146 N 
ENDBRANCH  19  21
ENDBRANCH   1  15
BRANCH  13  23
HETATM   23  C17 UNK   900      95.087 -58.488-277.337  1.00  0.00     0.072 C 
BRANCH  23  24
HETATM   24  C18 UNK   900      96.354 -59.132-277.703  1.00  0.00     0.017 C 
HETATM   25  C19 UNK   900      97.251 -58.367-278.444  1.00  0.00     0.004 C 
HETATM   26  C20 UNK   900      97.766 -58.831-279.654  1.00  0.00     0.030 C 
HETATM   27  C21 UNK   900      97.419 -60.093-280.135  1.00  0.00     0.140 C 
HETATM   28  F1  UNK   900      96.940 -60.251-281.409  1.00  0.00    -0.204 F 
HETATM   29  C22 UNK   900      97.062 -60.968-279.111  1.00  0.00     0.030 C 
HETATM   30  C23 UNK   900      96.504 -60.498-277.923  1.00  0.00     0.004 C 
ENDBRANCH  23  24
ENDBRANCH  13  23
TORSDOF 4
ENDMDL
MODEL 8
REMARK VINA RESULT:      -5.1     22.062     25.155
REMARK  4 active torsions:
REMARK  status: ('A' for Active; 'I' for Inactive)
REMARK    1  A    between atoms: C1_2  and  C2_3 
REMARK    2  A    between atoms: C6_7  and  C7_8 
REMARK    3  A    between atoms: N3_20  and  C17_21 
REMARK    4  A    between atoms: C17_21  and  C18_22 
ROOT
HETATM    1  C7  UNK   900     102.138 -82.217-253.214  1.00  0.00     0.056 C 
HETATM    2  C8  UNK   900     102.339 -82.802-251.964  1.00  0.00     0.002 C 
HETATM    3  C9  UNK   900     101.267 -83.294-251.211  1.00  0.00    -0.004 C 
HETATM    4  C10 UNK   900     100.065 -83.374-251.924  1.00  0.00     0.108 C 
HETATM    5  N2  UNK   900      99.754 -82.416-252.844  1.00  0.00    -0.315 N 
HETATM    6  C11 UNK   900     100.814 -82.031-253.594  1.00  0.00     0.257 C 
HETATM    7  O1  UNK   900     100.594 -81.197-254.477  1.00  0.00    -0.267 OA
HETATM    8  C12 UNK   900      98.710 -81.467-252.441  1.00  0.00     0.106 C 
HETATM    9  C13 UNK   900      97.281 -82.226-252.644  1.00  0.00     0.045 C 
HETATM   10  C14 UNK   900      97.752 -83.695-252.190  1.00  0.00     0.008 C 
HETATM   11  C15 UNK   900      98.804 -83.678-250.964  1.00  0.00     0.047 C 
HETATM   12  C16 UNK   900      98.763 -82.111-250.504  1.00  0.00     0.104 C 
HETATM   13  N3  UNK   900      97.496 -81.732-250.206  1.00  0.00    -0.347 N 
HETATM   14  C24 UNK   900      96.609 -81.832-251.203  1.00  0.00     0.103 C 
ENDROOT
BRANCH   1  15
HETATM   15  C6  UNK   900     102.982 -82.712-254.332  1.00  0.00     0.005 C 
HETATM   16  C5  UNK   900     102.636 -83.872-255.020  1.00  0.00     0.000 C 
HETATM   17  C4  UNK   900     103.599 -84.665-255.643  1.00  0.00     0.000 C 
HETATM   18  C3  UNK   900     104.854 -84.663-255.043  1.00  0.00     0.002 C 
HETATM   19  C2  UNK   900     105.286 -83.551-254.325  1.00  0.00     0.021 C 
HETATM   20  C25 UNK   900     104.367 -82.511-254.306  1.00  0.00     0.002 C 
BRANCH  19  21
HETATM   21  C1  UNK   900     106.395 -83.642-253.395  1.00  0.00     0.122 C 
HETATM   22  N1  UNK   900     107.348 -83.356-252.845  1.00  0.00    -0.146 N 
ENDBRANCH  19  21
ENDBRANCH   1  15
BRANCH  13  23
HETATM   23  C17 UNK   900      97.562 -80.751-249.221  1.00  0.00     0.072 C 
BRANCH  23  24
HETATM   24  C18 UNK   900      98.155 -81.128-247.932  1.00  0.00     0.017 C 
HETATM   25  C19 UNK   900      99.415 -80.605-247.649  1.00  0.00     0.004 C 
HETATM   26  C20 UNK   900     100.478 -81.436-247.298  1.00  0.00     0.030 C 
HETATM   27  C21 UNK   900     100.294 -82.815-247.190  1.00  0.00     0.140 C 
HETATM   28  F1  UNK   900     101.117 -83.686-247.853  1.00  0.00    -0.204 F 
HETATM   29  C22 UNK   900      98.976 -83.149-246.886  1.00  0.00     0.030 C 
HETATM   30  C23 UNK   900      97.916 -82.334-247.281  1.00  0.00     0.004 C 
ENDBRANCH  23  24
ENDBRANCH  13  23
TORSDOF 4
ENDMDL
MODEL 9
REMARK VINA RESULT:      -5.1     39.563     41.088
REMARK  4 active torsions:
REMARK  status: ('A' for Active; 'I' for Inactive)
REMARK    1  A    between atoms: C1_2  and  C2_3 
REMARK    2  A    between atoms: C6_7  and  C7_8 
REMARK    3  A    between atoms: N3_20  and  C17_21 
REMARK    4  A    between atoms: C17_21  and  C18_22 
ROOT
HETATM    1  C7  UNK   900     121.460 -58.506-265.298  1.00  0.00     0.056 C 
HETATM    2  C8  UNK   900     120.877 -58.627-266.559  1.00  0.00     0.002 C 
HETATM    3  C9  UNK   900     120.997 -57.614-267.517  1.00  0.00    -0.004 C 
HETATM    4  C10 UNK   900     121.939 -56.633-267.185  1.00  0.00     0.108 C 
HETATM    5  N2  UNK   900     122.089 -56.243-265.886  1.00  0.00    -0.315 N 
HETATM    6  C11 UNK   900     122.037 -57.275-265.009  1.00  0.00     0.257 C 
HETATM    7  O1  UNK   900     122.209 -56.999-263.819  1.00  0.00    -0.267 OA
HETATM    8  C12 UNK   900     121.542 -54.923-265.554  1.00  0.00     0.106 C 
HETATM    9  C13 UNK   900     122.622 -53.821-266.082  1.00  0.00     0.045 C 
HETATM   10  C14 UNK   900     123.073 -54.587-267.422  1.00  0.00     0.008 C 
HETATM   11  C15 UNK   900     121.855 -55.351-268.161  1.00  0.00     0.047 C 
HETATM   12  C16 UNK   900     120.558 -54.796-267.338  1.00  0.00     0.104 C 
HETATM   13  N3  UNK   900     120.516 -53.440-267.368  1.00  0.00    -0.347 N 
HETATM   14  C24 UNK   900     121.569 -52.814-266.831  1.00  0.00     0.103 C 
ENDROOT
BRANCH   1  15
HETATM   15  C6  UNK   900     122.291 -59.644-264.828  1.00  0.00     0.005 C 
HETATM   16  C5  UNK   900     121.986 -60.298-263.638  1.00  0.00     0.000 C 
HETATM   17  C4  UNK   900     122.969 -60.941-262.886  1.00  0.00     0.000 C 
HETATM   18  C3  UNK   900     124.243 -60.386-262.969  1.00  0.00     0.002 C 
HETATM   19  C2  UNK   900     124.637 -59.704-264.116  1.00  0.00     0.021 C 
HETATM   20  C25 UNK   900     123.662 -59.671-265.105  1.00  0.00     0.002 C 
BRANCH  19  21
HETATM   21  C1  UNK   900     125.781 -58.813-264.105  1.00  0.00     0.122 C 
HETATM   22  N1  UNK   900     126.776 -58.357-264.409  1.00  0.00    -0.146 N 
ENDBRANCH  19  21
ENDBRANCH   1  15
BRANCH  13  23
HETATM   23  C17 UNK   900     119.181 -53.052-267.320  1.00  0.00     0.072 C 
BRANCH  23  24
HETATM   24  C18 UNK   900     118.774 -51.926-268.170  1.00  0.00     0.017 C 
HETATM   25  C19 UNK   900     119.192 -51.965-269.499  1.00  0.00     0.004 C 
HETATM   26  C20 UNK   900     119.892 -50.901-270.065  1.00  0.00     0.030 C 
HETATM   27  C21 UNK   900     120.163 -49.753-269.321  1.00  0.00     0.140 C 
HETATM   28  F1  UNK   900     121.438 -49.260-269.231  1.00  0.00    -0.204 F 
HETATM   29  C22 UNK   900     119.234 -49.554-268.302  1.00  0.00     0.030 C 
HETATM   30  C23 UNK   900     118.572 -50.629-267.709  1.00  0.00     0.004 C 
ENDBRANCH  23  24
ENDBRANCH  13  23
TORSDOF 4
ENDMDL
