MODEL 1
REMARK VINA RESULT:      -6.8      0.000      0.000
REMARK  5 active torsions:
REMARK  status: ('A' for Active; 'I' for Inactive)
REMARK    1  A    between atoms: C2_2  and  C3_3 
REMARK    2  A    between atoms: C3_3  and  C4_5 
REMARK    3  A    between atoms: C5_6  and  O2_7 
REMARK    4  A    between atoms: O2_7  and  C6_8 
REMARK    5  A    between atoms: C6_8  and  C7_10 
ROOT
HETATM    1  C4  UNK   900     105.675 -74.497-275.098  1.00  0.00     0.080 C 
HETATM    2  C5  UNK   900     106.798 -75.127-275.555  1.00  0.00     0.108 C 
HETATM    3  C10 UNK   900     106.624 -76.365-276.165  1.00  0.00     0.025 C 
HETATM    4  C11 UNK   900     105.340 -76.861-276.353  1.00  0.00     0.004 C 
HETATM    5  C12 UNK   900     104.232 -76.113-276.015  1.00  0.00     0.019 C 
HETATM    6  C13 UNK   900     102.969 -76.435-276.465  1.00  0.00    -0.015 C 
HETATM    7  C14 UNK   900     102.669 -77.857-276.718  1.00  0.00     0.031 C 
HETATM    8  C15 UNK   900     102.071 -75.407-276.722  1.00  0.00     0.065 C 
HETATM    9  C16 UNK   900     102.474 -74.085-276.582  1.00  0.00     0.300 C 
HETATM   10  O4  UNK   900     102.087 -73.191-277.392  1.00  0.00    -0.259 OA
HETATM   11  O5  UNK   900     103.481 -73.889-275.745  1.00  0.00    -0.273 OA
HETATM   12  C17 UNK   900     104.406 -74.817-275.567  1.00  0.00     0.108 C 
ENDROOT
BRANCH   2  13
HETATM   13  O2  UNK   900     108.027 -74.459-275.587  1.00  0.00    -0.276 OA
BRANCH  13  14
HETATM   14  C6  UNK   900     108.631 -74.110-276.793  1.00  0.00     0.276 C 
HETATM   15  O3  UNK   900     109.697 -74.676-277.100  1.00  0.00    -0.264 OA
BRANCH  14  16
HETATM   16  C7  UNK   900     108.055 -72.954-277.515  1.00  0.00     0.087 C 
HETATM   17  C8  UNK   900     108.733 -72.902-278.879  1.00  0.00     0.010 C 
HETATM   18  C9  UNK   900     108.510 -71.701-276.783  1.00  0.00     0.010 C 
ENDBRANCH  14  16
ENDBRANCH  13  14
ENDBRANCH   2  13
BRANCH   1  19
HETATM   19  C3  UNK   900     105.785 -73.356-274.186  1.00  0.00     0.177 C 
HETATM   20  O1  UNK   900     105.748 -72.166-274.615  1.00  0.00    -0.291 OA
BRANCH  19  21
HETATM   21  C2  UNK   900     105.171 -73.544-272.833  1.00  0.00     0.069 C 
HETATM   22  C1  UNK   900     104.922 -72.202-272.158  1.00  0.00     0.009 C 
ENDBRANCH  19  21
ENDBRANCH   1  19
TORSDOF 5
ENDMDL
MODEL 2
REMARK VINA RESULT:      -5.2     20.872     24.117
REMARK  5 active torsions:
REMARK  status: ('A' for Active; 'I' for Inactive)
REMARK    1  A    between atoms: C2_2  and  C3_3 
REMARK    2  A    between atoms: C3_3  and  C4_5 
REMARK    3  A    between atoms: C5_6  and  O2_7 
REMARK    4  A    between atoms: O2_7  and  C6_8 
REMARK    5  A    between atoms: C6_8  and  C7_10 
ROOT
HETATM    1  C4  UNK   900     106.122 -53.870-265.526  1.00  0.00     0.080 C 
HETATM    2  C5  UNK   900     105.516 -52.864-266.227  1.00  0.00     0.108 C 
HETATM    3  C10 UNK   900     105.840 -51.560-265.869  1.00  0.00     0.025 C 
HETATM    4  C11 UNK   900     106.804 -51.337-264.893  1.00  0.00     0.004 C 
HETATM    5  C12 UNK   900     107.500 -52.386-264.328  1.00  0.00     0.019 C 
HETATM    6  C13 UNK   900     108.655 -52.188-263.602  1.00  0.00    -0.015 C 
HETATM    7  C14 UNK   900     108.798 -50.918-262.866  1.00  0.00     0.031 C 
HETATM    8  C15 UNK   900     109.649 -53.157-263.654  1.00  0.00     0.065 C 
HETATM    9  C16 UNK   900     109.491 -54.266-264.475  1.00  0.00     0.300 C 
HETATM   10  O4  UNK   900     110.469 -54.751-265.119  1.00  0.00    -0.259 OA
HETATM   11  O5  UNK   900     108.237 -54.591-264.748  1.00  0.00    -0.273 OA
HETATM   12  C17 UNK   900     107.294 -53.666-264.808  1.00  0.00     0.108 C 
ENDROOT
BRANCH   2  13
HETATM   13  O2  UNK   900     104.770 -53.146-267.376  1.00  0.00    -0.276 OA
BRANCH  13  14
HETATM   14  C6  UNK   900     104.072 -52.148-268.051  1.00  0.00     0.276 C 
HETATM   15  O3  UNK   900     102.968 -51.794-267.595  1.00  0.00    -0.264 OA
BRANCH  14  16
HETATM   16  C7  UNK   900     104.614 -51.727-269.362  1.00  0.00     0.087 C 
HETATM   17  C8  UNK   900     104.834 -50.221-269.287  1.00  0.00     0.010 C 
HETATM   18  C9  UNK   900     103.507 -51.929-270.385  1.00  0.00     0.010 C 
ENDBRANCH  14  16
ENDBRANCH  13  14
ENDBRANCH   2  13
BRANCH   1  19
HETATM   19  C3  UNK   900     105.622 -55.243-265.620  1.00  0.00     0.177 C 
HETATM   20  O1  UNK   900     106.200 -56.104-266.347  1.00  0.00    -0.291 OA
BRANCH  19  21
HETATM   21  C2  UNK   900     105.010 -55.799-264.372  1.00  0.00     0.069 C 
HETATM   22  C1  UNK   900     104.411 -57.176-264.627  1.00  0.00     0.009 C 
ENDBRANCH  19  21
ENDBRANCH   1  19
TORSDOF 5
ENDMDL
MODEL 3
REMARK VINA RESULT:      -5.0     15.168     17.541
REMARK  5 active torsions:
REMARK  status: ('A' for Active; 'I' for Inactive)
REMARK    1  A    between atoms: C2_2  and  C3_3 
REMARK    2  A    between atoms: C3_3  and  C4_5 
REMARK    3  A    between atoms: C5_6  and  O2_7 
REMARK    4  A    between atoms: O2_7  and  C6_8 
REMARK    5  A    between atoms: C6_8  and  C7_10 
ROOT
HETATM    1  C4  UNK   900      89.274 -78.341-274.031  1.00  0.00     0.080 C 
HETATM    2  C5  UNK   900      88.289 -78.386-274.977  1.00  0.00     0.108 C 
HETATM    3  C10 UNK   900      88.610 -78.971-276.197  1.00  0.00     0.025 C 
HETATM    4  C11 UNK   900      89.863 -79.546-276.372  1.00  0.00     0.004 C 
HETATM    5  C12 UNK   900      90.766 -79.614-275.332  1.00  0.00     0.019 C 
HETATM    6  C13 UNK   900      91.872 -80.435-275.378  1.00  0.00    -0.015 C 
HETATM    7  C14 UNK   900      92.467 -80.717-276.698  1.00  0.00     0.031 C 
HETATM    8  C15 UNK   900      92.326 -81.008-274.197  1.00  0.00     0.065 C 
HETATM    9  C16 UNK   900      91.631 -80.796-273.013  1.00  0.00     0.300 C 
HETATM   10  O4  UNK   900      91.491 -81.721-272.159  1.00  0.00    -0.259 OA
HETATM   11  O5  UNK   900      90.910 -79.686-272.974  1.00  0.00    -0.273 OA
HETATM   12  C17 UNK   900      90.379 -79.183-274.076  1.00  0.00     0.108 C 
ENDROOT
BRANCH   2  13
HETATM   13  O2  UNK   900      86.972 -78.044-274.650  1.00  0.00    -0.276 OA
BRANCH  13  14
HETATM   14  C6  UNK   900      86.544 -76.720-274.659  1.00  0.00     0.276 C 
HETATM   15  O3  UNK   900      85.891 -76.308-273.680  1.00  0.00    -0.264 OA
BRANCH  14  16
HETATM   16  C7  UNK   900      86.735 -75.967-275.918  1.00  0.00     0.087 C 
HETATM   17  C8  UNK   900      86.326 -74.525-275.638  1.00  0.00     0.010 C 
HETATM   18  C9  UNK   900      85.713 -76.496-276.912  1.00  0.00     0.010 C 
ENDBRANCH  14  16
ENDBRANCH  13  14
ENDBRANCH   2  13
BRANCH   1  19
HETATM   19  C3  UNK   900      89.129 -77.487-272.850  1.00  0.00     0.177 C 
HETATM   20  O1  UNK   900      88.768 -77.964-271.735  1.00  0.00    -0.291 OA
BRANCH  19  21
HETATM   21  C2  UNK   900      90.095 -76.347-272.750  1.00  0.00     0.069 C 
HETATM   22  C1  UNK   900      89.621 -75.158-273.576  1.00  0.00     0.009 C 
ENDBRANCH  19  21
ENDBRANCH   1  19
TORSDOF 5
ENDMDL
MODEL 4
REMARK VINA RESULT:      -5.0     24.552     26.156
REMARK  5 active torsions:
REMARK  status: ('A' for Active; 'I' for Inactive)
REMARK    1  A    between atoms: C2_2  and  C3_3 
REMARK    2  A    between atoms: C3_3  and  C4_5 
REMARK    3  A    between atoms: C5_6  and  O2_7 
REMARK    4  A    between atoms: O2_7  and  C6_8 
REMARK    5  A    between atoms: C6_8  and  C7_10 
ROOT
HETATM    1  C4  UNK   900     122.185 -57.297-266.719  1.00  0.00     0.080 C 
HETATM    2  C5  UNK   900     121.891 -57.896-265.526  1.00  0.00     0.108 C 
HETATM    3  C10 UNK   900     121.327 -57.094-264.539  1.00  0.00     0.025 C 
HETATM    4  C11 UNK   900     121.016 -55.771-264.826  1.00  0.00     0.004 C 
HETATM    5  C12 UNK   900     121.187 -55.259-266.096  1.00  0.00     0.019 C 
HETATM    6  C13 UNK   900     120.610 -54.070-266.487  1.00  0.00    -0.015 C 
HETATM    7  C14 UNK   900     120.395 -53.036-265.457  1.00  0.00     0.031 C 
HETATM    8  C15 UNK   900     120.201 -53.930-267.807  1.00  0.00     0.065 C 
HETATM    9  C16 UNK   900     120.322 -54.999-268.685  1.00  0.00     0.300 C 
HETATM   10  O4  UNK   900     119.430 -55.241-269.552  1.00  0.00    -0.259 OA
HETATM   11  O5  UNK   900     121.259 -55.881-268.374  1.00  0.00    -0.273 OA
HETATM   12  C17 UNK   900     121.588 -56.105-267.113  1.00  0.00     0.108 C 
ENDROOT
BRANCH   2  13
HETATM   13  O2  UNK   900     121.969 -59.285-265.388  1.00  0.00    -0.276 OA
BRANCH  13  14
HETATM   14  C6  UNK   900     122.932 -59.881-264.578  1.00  0.00     0.276 C 
HETATM   15  O3  UNK   900     124.085 -60.006-265.033  1.00  0.00    -0.264 OA
BRANCH  14  16
HETATM   16  C7  UNK   900     122.455 -60.490-263.317  1.00  0.00     0.087 C 
HETATM   17  C8  UNK   900     123.485 -60.151-262.245  1.00  0.00     0.010 C 
HETATM   18  C9  UNK   900     122.532 -61.999-263.495  1.00  0.00     0.010 C 
ENDBRANCH  14  16
ENDBRANCH  13  14
ENDBRANCH   2  13
BRANCH   1  19
HETATM   19  C3  UNK   900     123.046 -57.971-267.693  1.00  0.00     0.177 C 
HETATM   20  O1  UNK   900     122.559 -58.679-268.622  1.00  0.00    -0.291 OA
BRANCH  19  21
HETATM   21  C2  UNK   900     124.299 -57.240-268.067  1.00  0.00     0.069 C 
HETATM   22  C1  UNK   900     125.195 -57.040-266.851  1.00  0.00     0.009 C 
ENDBRANCH  19  21
ENDBRANCH   1  19
TORSDOF 5
ENDMDL
MODEL 5
REMARK VINA RESULT:      -4.9      9.493     12.920
REMARK  5 active torsions:
REMARK  status: ('A' for Active; 'I' for Inactive)
REMARK    1  A    between atoms: C2_2  and  C3_3 
REMARK    2  A    between atoms: C3_3  and  C4_5 
REMARK    3  A    between atoms: C5_6  and  O2_7 
REMARK    4  A    between atoms: O2_7  and  C6_8 
REMARK    5  A    between atoms: C6_8  and  C7_10 
ROOT
HETATM    1  C4  UNK   900     116.606 -78.221-274.820  1.00  0.00     0.080 C 
HETATM    2  C5  UNK   900     115.324 -77.757-274.917  1.00  0.00     0.108 C 
HETATM    3  C10 UNK   900     115.054 -76.857-275.943  1.00  0.00     0.025 C 
HETATM    4  C11 UNK   900     116.052 -76.537-276.854  1.00  0.00     0.004 C 
HETATM    5  C12 UNK   900     117.284 -77.155-276.805  1.00  0.00     0.019 C 
HETATM    6  C13 UNK   900     118.173 -77.095-277.857  1.00  0.00    -0.015 C 
HETATM    7  C14 UNK   900     118.146 -75.895-278.715  1.00  0.00     0.031 C 
HETATM    8  C15 UNK   900     118.997 -78.188-278.098  1.00  0.00     0.065 C 
HETATM    9  C16 UNK   900     118.870 -79.332-277.322  1.00  0.00     0.300 C 
HETATM   10  O4  UNK   900     118.980 -80.487-277.832  1.00  0.00    -0.259 OA
HETATM   11  O5  UNK   900     118.361 -79.142-276.115  1.00  0.00    -0.273 OA
HETATM   12  C17 UNK   900     117.492 -78.170-275.890  1.00  0.00     0.108 C 
ENDROOT
BRANCH   2  13
HETATM   13  O2  UNK   900     114.302 -78.323-274.148  1.00  0.00    -0.276 OA
BRANCH  13  14
HETATM   14  C6  UNK   900     113.416 -79.251-274.689  1.00  0.00     0.276 C 
HETATM   15  O3  UNK   900     112.264 -78.870-274.968  1.00  0.00    -0.264 OA
BRANCH  14  16
HETATM   16  C7  UNK   900     113.862 -80.662-274.708  1.00  0.00     0.087 C 
HETATM   17  C8  UNK   900     114.247 -80.985-276.147  1.00  0.00     0.010 C 
HETATM   18  C9  UNK   900     112.641 -81.518-274.409  1.00  0.00     0.010 C 
ENDBRANCH  14  16
ENDBRANCH  13  14
ENDBRANCH   2  13
BRANCH   1  19
HETATM   19  C3  UNK   900     117.052 -78.919-273.612  1.00  0.00     0.177 C 
HETATM   20  O1  UNK   900     117.175 -80.178-273.589  1.00  0.00    -0.291 OA
BRANCH  19  21
HETATM   21  C2  UNK   900     118.047 -78.185-272.768  1.00  0.00     0.069 C 
HETATM   22  C1  UNK   900     119.237 -79.075-272.432  1.00  0.00     0.009 C 
ENDBRANCH  19  21
ENDBRANCH   1  19
TORSDOF 5
ENDMDL
MODEL 6
REMARK VINA RESULT:      -4.8      1.668      2.249
REMARK  5 active torsions:
REMARK  status: ('A' for Active; 'I' for Inactive)
REMARK    1  A    between atoms: C2_2  and  C3_3 
REMARK    2  A    between atoms: C3_3  and  C4_5 
REMARK    3  A    between atoms: C5_6  and  O2_7 
REMARK    4  A    between atoms: O2_7  and  C6_8 
REMARK    5  A    between atoms: C6_8  and  C7_10 
ROOT
HETATM    1  C4  UNK   900     105.846 -75.565-275.525  1.00  0.00     0.080 C 
HETATM    2  C5  UNK   900     106.614 -76.570-276.044  1.00  0.00     0.108 C 
HETATM    3  C10 UNK   900     105.944 -77.666-276.576  1.00  0.00     0.025 C 
HETATM    4  C11 UNK   900     104.555 -77.659-276.632  1.00  0.00     0.004 C 
HETATM    5  C12 UNK   900     103.833 -76.552-276.240  1.00  0.00     0.019 C 
HETATM    6  C13 UNK   900     102.503 -76.394-276.567  1.00  0.00    -0.015 C 
HETATM    7  C14 UNK   900     101.683 -77.610-276.724  1.00  0.00     0.031 C 
HETATM    8  C15 UNK   900     102.021 -75.111-276.797  1.00  0.00     0.065 C 
HETATM    9  C16 UNK   900     102.889 -74.028-276.755  1.00  0.00     0.300 C 
HETATM   10  O4  UNK   900     102.779 -73.066-277.572  1.00  0.00    -0.259 OA
HETATM   11  O5  UNK   900     103.973 -74.203-276.015  1.00  0.00    -0.273 OA
HETATM   12  C17 UNK   900     104.510 -75.404-275.870  1.00  0.00     0.108 C 
ENDROOT
BRANCH   2  13
HETATM   13  O2  UNK   900     107.992 -76.400-276.211  1.00  0.00    -0.276 OA
BRANCH  13  14
HETATM   14  C6  UNK   900     108.591 -76.520-277.462  1.00  0.00     0.276 C 
HETATM   15  O3  UNK   900     109.570 -77.283-277.572  1.00  0.00    -0.264 OA
BRANCH  14  16
HETATM   16  C7  UNK   900     108.133 -75.584-278.511  1.00  0.00     0.087 C 
HETATM   17  C8  UNK   900     107.731 -76.430-279.714  1.00  0.00     0.010 C 
HETATM   18  C9  UNK   900     109.350 -74.789-278.959  1.00  0.00     0.010 C 
ENDBRANCH  14  16
ENDBRANCH  13  14
ENDBRANCH   2  13
BRANCH   1  19
HETATM   19  C3  UNK   900     106.451 -74.531-274.681  1.00  0.00     0.177 C 
HETATM   20  O1  UNK   900     107.245 -74.832-273.743  1.00  0.00    -0.291 OA
BRANCH  19  21
HETATM   21  C2  UNK   900     106.763 -73.236-275.364  1.00  0.00     0.069 C 
HETATM   22  C1  UNK   900     108.235 -73.167-275.751  1.00  0.00     0.009 C 
ENDBRANCH  19  21
ENDBRANCH   1  19
TORSDOF 5
ENDMDL
MODEL 7
REMARK VINA RESULT:      -4.7     24.053     26.608
REMARK  5 active torsions:
REMARK  status: ('A' for Active; 'I' for Inactive)
REMARK    1  A    between atoms: C2_2  and  C3_3 
REMARK    2  A    between atoms: C3_3  and  C4_5 
REMARK    3  A    between atoms: C5_6  and  O2_7 
REMARK    4  A    between atoms: O2_7  and  C6_8 
REMARK    5  A    between atoms: C6_8  and  C7_10 
ROOT
HETATM    1  C4  UNK   900      93.437 -55.746-262.084  1.00  0.00     0.080 C 
HETATM    2  C5  UNK   900      94.053 -56.796-261.461  1.00  0.00     0.108 C 
HETATM    3  C10 UNK   900      95.128 -57.379-262.122  1.00  0.00     0.025 C 
HETATM    4  C11 UNK   900      95.574 -56.834-263.320  1.00  0.00     0.004 C 
HETATM    5  C12 UNK   900      95.017 -55.678-263.826  1.00  0.00     0.019 C 
HETATM    6  C13 UNK   900      95.628 -54.951-264.826  1.00  0.00    -0.015 C 
HETATM    7  C14 UNK   900      96.461 -55.682-265.799  1.00  0.00     0.031 C 
HETATM    8  C15 UNK   900      95.484 -53.569-264.827  1.00  0.00     0.065 C 
HETATM    9  C16 UNK   900      94.788 -52.945-263.800  1.00  0.00     0.300 C 
HETATM   10  O4  UNK   900      95.176 -51.837-263.324  1.00  0.00    -0.259 OA
HETATM   11  O5  UNK   900      93.892 -53.701-263.186  1.00  0.00    -0.273 OA
HETATM   12  C17 UNK   900      94.064 -55.008-263.081  1.00  0.00     0.108 C 
ENDROOT
BRANCH   2  13
HETATM   13  O2  UNK   900      93.739 -57.122-260.138  1.00  0.00    -0.276 OA
BRANCH  13  14
HETATM   14  C6  UNK   900      94.673 -56.979-259.115  1.00  0.00     0.276 C 
HETATM   15  O3  UNK   900      95.209 -58.008-258.662  1.00  0.00    -0.264 OA
BRANCH  14  16
HETATM   16  C7  UNK   900      94.808 -55.630-258.521  1.00  0.00     0.087 C 
HETATM   17  C8  UNK   900      95.886 -54.903-259.316  1.00  0.00     0.010 C 
HETATM   18  C9  UNK   900      95.383 -55.815-257.125  1.00  0.00     0.010 C 
ENDBRANCH  14  16
ENDBRANCH  13  14
ENDBRANCH   2  13
BRANCH   1  19
HETATM   19  C3  UNK   900      92.130 -55.273-261.621  1.00  0.00     0.177 C 
HETATM   20  O1  UNK   900      91.120 -56.036-261.616  1.00  0.00    -0.291 OA
BRANCH  19  21
HETATM   21  C2  UNK   900      92.158 -54.279-260.502  1.00  0.00     0.069 C 
HETATM   22  C1  UNK   900      91.241 -54.713-259.366  1.00  0.00     0.009 C 
ENDBRANCH  19  21
ENDBRANCH   1  19
TORSDOF 5
ENDMDL
MODEL 8
REMARK VINA RESULT:      -4.7     31.431     33.453
REMARK  5 active torsions:
REMARK  status: ('A' for Active; 'I' for Inactive)
REMARK    1  A    between atoms: C2_2  and  C3_3 
REMARK    2  A    between atoms: C3_3  and  C4_5 
REMARK    3  A    between atoms: C5_6  and  O2_7 
REMARK    4  A    between atoms: O2_7  and  C6_8 
REMARK    5  A    between atoms: C6_8  and  C7_10 
ROOT
HETATM    1  C4  UNK   900     111.810 -75.304-243.431  1.00  0.00     0.080 C 
HETATM    2  C5  UNK   900     111.170 -76.481-243.161  1.00  0.00     0.108 C 
HETATM    3  C10 UNK   900     110.103 -76.430-242.271  1.00  0.00     0.025 C 
HETATM    4  C11 UNK   900     109.688 -75.203-241.768  1.00  0.00     0.004 C 
HETATM    5  C12 UNK   900     110.267 -74.026-242.196  1.00  0.00     0.019 C 
HETATM    6  C13 UNK   900     109.686 -72.799-241.960  1.00  0.00    -0.015 C 
HETATM    7  C14 UNK   900     108.865 -72.646-240.744  1.00  0.00     0.031 C 
HETATM    8  C15 UNK   900     109.844 -71.794-242.907  1.00  0.00     0.065 C 
HETATM    9  C16 UNK   900     110.525 -72.058-244.088  1.00  0.00     0.300 C 
HETATM   10  O4  UNK   900     110.139 -71.568-245.192  1.00  0.00    -0.259 OA
HETATM   11  O5  UNK   900     111.399 -73.050-244.025  1.00  0.00    -0.273 OA
HETATM   12  C17 UNK   900     111.211 -74.070-243.205  1.00  0.00     0.108 C 
ENDROOT
BRANCH   2  13
HETATM   13  O2  UNK   900     111.452 -77.632-243.904  1.00  0.00    -0.276 OA
BRANCH  13  14
HETATM   14  C6  UNK   900     112.334 -78.601-243.433  1.00  0.00     0.276 C 
HETATM   15  O3  UNK   900     112.492 -78.702-242.202  1.00  0.00    -0.264 OA
BRANCH  14  16
HETATM   16  C7  UNK   900     113.155 -79.300-244.446  1.00  0.00     0.087 C 
HETATM   17  C8  UNK   900     114.613 -79.000-244.118  1.00  0.00     0.010 C 
HETATM   18  C9  UNK   900     112.888 -78.622-245.781  1.00  0.00     0.010 C 
ENDBRANCH  14  16
ENDBRANCH  13  14
ENDBRANCH   2  13
BRANCH   1  19
HETATM   19  C3  UNK   900     113.111 -75.305-244.103  1.00  0.00     0.177 C 
HETATM   20  O1  UNK   900     113.209 -75.091-245.346  1.00  0.00    -0.291 OA
BRANCH  19  21
HETATM   21  C2  UNK   900     114.260 -74.786-243.294  1.00  0.00     0.069 C 
HETATM   22  C1  UNK   900     114.626 -75.759-242.181  1.00  0.00     0.009 C 
ENDBRANCH  19  21
ENDBRANCH   1  19
TORSDOF 5
ENDMDL
MODEL 9
REMARK VINA RESULT:      -4.6      8.249     10.533
REMARK  5 active torsions:
REMARK  status: ('A' for Active; 'I' for Inactive)
REMARK    1  A    between atoms: C2_2  and  C3_3 
REMARK    2  A    between atoms: C3_3  and  C4_5 
REMARK    3  A    between atoms: C5_6  and  O2_7 
REMARK    4  A    between atoms: O2_7  and  C6_8 
REMARK    5  A    between atoms: C6_8  and  C7_10 
ROOT
HETATM    1  C4  UNK   900     100.286 -66.974-280.121  1.00  0.00     0.080 C 
HETATM    2  C5  UNK   900     100.319 -68.169-279.458  1.00  0.00     0.108 C 
HETATM    3  C10 UNK   900      99.099 -68.708-279.065  1.00  0.00     0.025 C 
HETATM    4  C11 UNK   900      97.920 -68.068-279.424  1.00  0.00     0.004 C 
HETATM    5  C12 UNK   900      97.935 -66.948-280.229  1.00  0.00     0.019 C 
HETATM    6  C13 UNK   900      96.797 -66.480-280.850  1.00  0.00    -0.015 C 
HETATM    7  C14 UNK   900      95.502 -66.709-280.181  1.00  0.00     0.031 C 
HETATM    8  C15 UNK   900      96.916 -65.879-282.097  1.00  0.00     0.065 C 
HETATM    9  C16 UNK   900      98.157 -65.817-282.718  1.00  0.00     0.300 C 
HETATM   10  O4  UNK   900      98.274 -65.982-283.969  1.00  0.00    -0.259 OA
HETATM   11  O5  UNK   900      99.198 -65.858-281.902  1.00  0.00    -0.273 OA
HETATM   12  C17 UNK   900      99.138 -66.515-280.756  1.00  0.00     0.108 C 
ENDROOT
BRANCH   2  13
HETATM   13  O2  UNK   900     101.508 -68.900-279.369  1.00  0.00    -0.276 OA
BRANCH  13  14
HETATM   14  C6  UNK   900     101.499 -70.287-279.237  1.00  0.00     0.276 C 
HETATM   15  O3  UNK   900     101.323 -70.767-278.101  1.00  0.00    -0.264 OA
BRANCH  14  16
HETATM   16  C7  UNK   900     101.891 -71.070-280.429  1.00  0.00     0.087 C 
HETATM   17  C8  UNK   900     102.960 -70.264-281.157  1.00  0.00     0.010 C 
HETATM   18  C9  UNK   900     100.689 -71.091-281.362  1.00  0.00     0.010 C 
ENDBRANCH  14  16
ENDBRANCH  13  14
ENDBRANCH   2  13
BRANCH   1  19
HETATM   19  C3  UNK   900     101.511 -66.192-280.300  1.00  0.00     0.177 C 
HETATM   20  O1  UNK   900     102.134 -65.711-279.308  1.00  0.00    -0.291 OA
BRANCH  19  21
HETATM   21  C2  UNK   900     102.390 -66.612-281.437  1.00  0.00     0.069 C 
HETATM   22  C1  UNK   900     103.857 -66.581-281.030  1.00  0.00     0.009 C 
ENDBRANCH  19  21
ENDBRANCH   1  19
TORSDOF 5
ENDMDL
