MODEL 1
REMARK VINA RESULT:      -5.9      0.000      0.000
REMARK  6 active torsions:
REMARK  status: ('A' for Active; 'I' for Inactive)
REMARK       I    between atoms: C1_2  and  N1_3 
REMARK    1  A    between atoms: C1_2  and  O2_10 
REMARK    2  A    between atoms: N1_3  and  C2_4 
REMARK    3  A    between atoms: O2_10  and  C8_11 
REMARK    4  A    between atoms: C11_15  and  N2_16 
REMARK    5  A    between atoms: N2_16  and  C12_17 
REMARK    6  A    between atoms: C15_21  and  C16_22 
ROOT
HETATM    1  C8  UNK   900     109.341 -70.052-243.757  1.00  0.00     0.185 C 
HETATM    2  C9  UNK   900     110.785 -70.311-244.521  1.00  0.00     0.175 C 
HETATM    3  O3  UNK   900     110.645 -71.610-244.874  1.00  0.00    -0.349 OA
HETATM    4  C10 UNK   900     110.974 -71.906-243.418  1.00  0.00     0.170 C 
HETATM    5  C11 UNK   900     110.652 -73.585-243.700  1.00  0.00     0.181 C 
HETATM    6  C21 UNK   900     109.075 -73.484-243.234  1.00  0.00     0.170 C 
HETATM    7  O4  UNK   900     108.836 -72.424-244.119  1.00  0.00    -0.349 OA
HETATM    8  C22 UNK   900     109.349 -71.600-242.953  1.00  0.00     0.175 C 
ENDROOT
BRANCH   5   9
HETATM    9  N2  UNK   900     111.104 -73.985-242.234  1.00  0.00    -0.083 NA
BRANCH   9  10
HETATM   10  C12 UNK   900     111.167 -75.374-242.002  1.00  0.00     0.746 C 
HETATM   11  N3  UNK   900     111.183 -75.963-240.809  1.00  0.00    -0.058 NA
HETATM   12  C13 UNK   900     111.202 -77.318-240.769  1.00  0.00     0.119 C 
HETATM   13  C14 UNK   900     111.525 -78.059-241.900  1.00  0.00     0.037 C 
HETATM   14  C15 UNK   900     111.511 -77.423-243.129  1.00  0.00     0.079 C 
HETATM   15  N4  UNK   900     111.069 -76.148-243.111  1.00  0.00    -0.064 NA
BRANCH  14  16
HETATM   16  C16 UNK   900     112.171 -78.007-244.339  1.00  0.00     0.041 C 
HETATM   17  C17 UNK   900     112.868 -76.882-245.049  1.00  0.00     0.006 C 
HETATM   18  C18 UNK   900     114.255 -76.926-244.446  1.00  0.00     0.000 C 
HETATM   19  C19 UNK   900     114.544 -78.415-244.305  1.00  0.00     0.000 C 
HETATM   20  C20 UNK   900     113.200 -79.024-243.967  1.00  0.00     0.006 C 
ENDBRANCH  14  16
ENDBRANCH   9  10
ENDBRANCH   5   9
BRANCH   1  21
HETATM   21  O2  UNK   900     108.534 -70.512-245.008  1.00  0.00    -0.281 OA
BRANCH  21  22
HETATM   22  C1  UNK   900     107.667 -69.499-245.406  1.00  0.00     0.384 C 
HETATM   23  O1  UNK   900     107.481 -69.438-245.986  1.00  0.00    -0.236 OA
HETATM   24  N1  UNK   900     107.261 -68.579-244.401  1.00  0.00    -0.214 NA
BRANCH  24  25
HETATM   25  C2  UNK   900     106.131 -67.729-244.680  1.00  0.00     0.109 C 
HETATM   26  C3  UNK   900     105.053 -67.793-243.643  1.00  0.00     0.025 C 
HETATM   27  C4  UNK   900     105.388 -67.050-242.376  1.00  0.00     0.002 C 
HETATM   28  C5  UNK   900     105.939 -65.673-242.628  1.00  0.00     0.000 C 
HETATM   29  C6  UNK   900     105.780 -65.310-244.099  1.00  0.00     0.002 C 
HETATM   30  C7  UNK   900     106.583 -66.311-244.922  1.00  0.00     0.025 C 
ENDBRANCH  24  25
ENDBRANCH  21  22
ENDBRANCH   1  21
TORSDOF 6
ENDMDL
MODEL 2
REMARK VINA RESULT:      -5.9     17.000     18.715
REMARK  6 active torsions:
REMARK  status: ('A' for Active; 'I' for Inactive)
REMARK       I    between atoms: C1_2  and  N1_3 
REMARK    1  A    between atoms: C1_2  and  O2_10 
REMARK    2  A    between atoms: N1_3  and  C2_4 
REMARK    3  A    between atoms: O2_10  and  C8_11 
REMARK    4  A    between atoms: C11_15  and  N2_16 
REMARK    5  A    between atoms: N2_16  and  C12_17 
REMARK    6  A    between atoms: C15_21  and  C16_22 
ROOT
HETATM    1  C8  UNK   900      91.873 -73.459-249.913  1.00  0.00     0.185 C 
HETATM    2  C9  UNK   900      92.856 -74.320-250.926  1.00  0.00     0.175 C 
HETATM    3  O3  UNK   900      92.720 -75.560-250.402  1.00  0.00    -0.349 OA
HETATM    4  C10 UNK   900      93.683 -75.072-249.330  1.00  0.00     0.170 C 
HETATM    5  C11 UNK   900      93.457 -76.558-248.468  1.00  0.00     0.181 C 
HETATM    6  C21 UNK   900      92.242 -75.966-247.526  1.00  0.00     0.170 C 
HETATM    7  O4  UNK   900      91.525 -75.530-248.649  1.00  0.00    -0.349 OA
HETATM    8  C22 UNK   900      92.402 -74.303-248.481  1.00  0.00     0.175 C 
ENDROOT
BRANCH   5   9
HETATM    9  N2  UNK   900      94.545 -76.170-247.383  1.00  0.00    -0.083 NA
BRANCH   9  10
HETATM   10  C12 UNK   900      94.964 -77.241-246.569  1.00  0.00     0.746 C 
HETATM   11  N3  UNK   900      94.913 -77.274-245.239  1.00  0.00    -0.058 NA
HETATM   12  C13 UNK   900      95.319 -78.407-244.615  1.00  0.00     0.119 C 
HETATM   13  C14 UNK   900      96.064 -79.365-245.292  1.00  0.00     0.037 C 
HETATM   14  C15 UNK   900      96.111 -79.305-246.674  1.00  0.00     0.079 C 
HETATM   15  N4  UNK   900      95.321 -78.366-247.235  1.00  0.00    -0.064 NA
BRANCH  14  16
HETATM   16  C16 UNK   900      97.142 -80.043-247.471  1.00  0.00     0.041 C 
HETATM   17  C17 UNK   900      98.266 -79.083-247.736  1.00  0.00     0.006 C 
HETATM   18  C18 UNK   900      99.194 -79.336-246.568  1.00  0.00     0.000 C 
HETATM   19  C19 UNK   900      99.129 -80.846-246.372  1.00  0.00     0.000 C 
HETATM   20  C20 UNK   900      97.697 -81.203-246.712  1.00  0.00     0.006 C 
ENDBRANCH  14  16
ENDBRANCH   9  10
ENDBRANCH   5   9
BRANCH   1  21
HETATM   21  O2  UNK   900      90.656 -74.383-250.219  1.00  0.00    -0.281 OA
BRANCH  21  22
HETATM   22  C1  UNK   900      89.578 -73.613-250.645  1.00  0.00     0.384 C 
HETATM   23  O1  UNK   900      89.583 -73.003-250.619  1.00  0.00    -0.236 OA
HETATM   24  N1  UNK   900      88.437 -74.322-251.113  1.00  0.00    -0.214 NA
BRANCH  24  25
HETATM   25  C2  UNK   900      87.444 -73.588-251.857  1.00  0.00     0.109 C 
HETATM   26  C3  UNK   900      87.426 -73.907-253.320  1.00  0.00     0.025 C 
HETATM   27  C4  UNK   900      86.789 -75.234-253.642  1.00  0.00     0.002 C 
HETATM   28  C5  UNK   900      85.478 -75.445-252.935  1.00  0.00     0.000 C 
HETATM   29  C6  UNK   900      85.030 -74.150-252.269  1.00  0.00     0.002 C 
HETATM   30  C7  UNK   900      86.082 -73.762-251.235  1.00  0.00     0.025 C 
ENDBRANCH  24  25
ENDBRANCH  21  22
ENDBRANCH   1  21
TORSDOF 6
ENDMDL
MODEL 3
REMARK VINA RESULT:      -5.8     36.383     38.978
REMARK  6 active torsions:
REMARK  status: ('A' for Active; 'I' for Inactive)
REMARK       I    between atoms: C1_2  and  N1_3 
REMARK    1  A    between atoms: C1_2  and  O2_10 
REMARK    2  A    between atoms: N1_3  and  C2_4 
REMARK    3  A    between atoms: O2_10  and  C8_11 
REMARK    4  A    between atoms: C11_15  and  N2_16 
REMARK    5  A    between atoms: N2_16  and  C12_17 
REMARK    6  A    between atoms: C15_21  and  C16_22 
ROOT
HETATM    1  C8  UNK   900      87.465 -73.365-274.328  1.00  0.00     0.185 C 
HETATM    2  C9  UNK   900      87.825 -73.012-275.904  1.00  0.00     0.175 C 
HETATM    3  O3  UNK   900      88.743 -72.034-275.732  1.00  0.00    -0.349 OA
HETATM    4  C10 UNK   900      87.546 -71.138-275.448  1.00  0.00     0.170 C 
HETATM    5  C11 UNK   900      88.626 -69.849-275.031  1.00  0.00     0.181 C 
HETATM    6  C21 UNK   900      88.628 -70.210-273.424  1.00  0.00     0.170 C 
HETATM    7  O4  UNK   900      88.974 -71.544-273.679  1.00  0.00    -0.349 OA
HETATM    8  C22 UNK   900      87.471 -71.695-273.824  1.00  0.00     0.175 C 
ENDROOT
BRANCH   5   9
HETATM    9  N2  UNK   900      87.433 -68.823-274.843  1.00  0.00    -0.083 NA
BRANCH   9  10
HETATM   10  C12 UNK   900      87.811 -67.468-274.921  1.00  0.00     0.746 C 
HETATM   11  N3  UNK   900      88.905 -66.998-275.516  1.00  0.00    -0.058 NA
HETATM   12  C13 UNK   900      89.092 -65.655-275.535  1.00  0.00     0.119 C 
HETATM   13  C14 UNK   900      88.364 -64.823-274.694  1.00  0.00     0.037 C 
HETATM   14  C15 UNK   900      87.234 -65.336-274.079  1.00  0.00     0.079 C 
HETATM   15  N4  UNK   900      86.893 -66.585-274.455  1.00  0.00    -0.064 NA
BRANCH  14  16
HETATM   16  C16 UNK   900      86.590 -64.666-272.905  1.00  0.00     0.041 C 
HETATM   17  C17 UNK   900      86.497 -63.202-273.228  1.00  0.00     0.006 C 
HETATM   18  C18 UNK   900      85.127 -63.093-273.861  1.00  0.00     0.000 C 
HETATM   19  C19 UNK   900      84.267 -64.041-273.033  1.00  0.00     0.000 C 
HETATM   20  C20 UNK   900      85.205 -65.174-272.673  1.00  0.00     0.006 C 
ENDBRANCH  14  16
ENDBRANCH   9  10
ENDBRANCH   5   9
BRANCH   1  21
HETATM   21  O2  UNK   900      88.961 -73.651-273.994  1.00  0.00    -0.281 OA
BRANCH  21  22
HETATM   22  C1  UNK   900      89.084 -74.924-273.446  1.00  0.00     0.384 C 
HETATM   23  O1  UNK   900      89.181 -75.013-272.849  1.00  0.00    -0.236 OA
HETATM   24  N1  UNK   900      89.012 -76.017-274.353  1.00  0.00    -0.214 NA
BRANCH  24  25
HETATM   25  C2  UNK   900      88.806 -77.335-273.808  1.00  0.00     0.109 C 
HETATM   26  C3  UNK   900      87.866 -78.181-274.608  1.00  0.00     0.025 C 
HETATM   27  C4  UNK   900      88.470 -78.724-275.876  1.00  0.00     0.002 C 
HETATM   28  C5  UNK   900      89.836 -79.321-275.670  1.00  0.00     0.000 C 
HETATM   29  C6  UNK   900      90.136 -79.434-274.181  1.00  0.00     0.002 C 
HETATM   30  C7  UNK   900      90.128 -78.028-273.590  1.00  0.00     0.025 C 
ENDBRANCH  24  25
ENDBRANCH  21  22
ENDBRANCH   1  21
TORSDOF 6
ENDMDL
MODEL 4
REMARK VINA RESULT:      -5.8     16.194     17.866
REMARK  6 active torsions:
REMARK  status: ('A' for Active; 'I' for Inactive)
REMARK       I    between atoms: C1_2  and  N1_3 
REMARK    1  A    between atoms: C1_2  and  O2_10 
REMARK    2  A    between atoms: N1_3  and  C2_4 
REMARK    3  A    between atoms: O2_10  and  C8_11 
REMARK    4  A    between atoms: C11_15  and  N2_16 
REMARK    5  A    between atoms: N2_16  and  C12_17 
REMARK    6  A    between atoms: C15_21  and  C16_22 
ROOT
HETATM    1  C8  UNK   900      91.843 -74.803-249.855  1.00  0.00     0.185 C 
HETATM    2  C9  UNK   900      91.160 -75.981-248.917  1.00  0.00     0.175 C 
HETATM    3  O3  UNK   900      91.735 -75.708-247.724  1.00  0.00    -0.349 OA
HETATM    4  C10 UNK   900      92.960 -76.402-248.301  1.00  0.00     0.170 C 
HETATM    5  C11 UNK   900      93.861 -75.958-246.889  1.00  0.00     0.181 C 
HETATM    6  C21 UNK   900      94.443 -74.567-247.551  1.00  0.00     0.170 C 
HETATM    7  O4  UNK   900      93.153 -74.137-247.892  1.00  0.00    -0.349 OA
HETATM    8  C22 UNK   900      93.422 -74.970-249.131  1.00  0.00     0.175 C 
ENDROOT
BRANCH   5   9
HETATM    9  N2  UNK   900      95.136 -76.770-247.368  1.00  0.00    -0.083 NA
BRANCH   9  10
HETATM   10  C12 UNK   900      95.673 -77.639-246.397  1.00  0.00     0.746 C 
HETATM   11  N3  UNK   900      95.295 -77.710-245.123  1.00  0.00    -0.058 NA
HETATM   12  C13 UNK   900      95.890 -78.638-244.334  1.00  0.00     0.119 C 
HETATM   13  C14 UNK   900      97.068 -79.261-244.731  1.00  0.00     0.037 C 
HETATM   14  C15 UNK   900      97.446 -79.165-246.060  1.00  0.00     0.079 C 
HETATM   15  N4  UNK   900      96.554 -78.555-246.868  1.00  0.00    -0.064 NA
BRANCH  14  16
HETATM   16  C16 UNK   900      98.836 -79.479-246.519  1.00  0.00     0.041 C 
HETATM   17  C17 UNK   900      98.964 -80.975-246.550  1.00  0.00     0.006 C 
HETATM   18  C18 UNK   900      98.571 -81.308-247.972  1.00  0.00     0.000 C 
HETATM   19  C19 UNK   900      99.193 -80.186-248.794  1.00  0.00     0.000 C 
HETATM   20  C20 UNK   900      99.087 -78.968-247.900  1.00  0.00     0.006 C 
ENDBRANCH  14  16
ENDBRANCH   9  10
ENDBRANCH   5   9
BRANCH   1  21
HETATM   21  O2  UNK   900      91.337 -73.677-248.904  1.00  0.00    -0.281 OA
BRANCH  21  22
HETATM   22  C1  UNK   900      90.504 -72.810-249.605  1.00  0.00     0.384 C 
HETATM   23  O1  UNK   900      90.707 -72.285-249.844  1.00  0.00    -0.236 OA
HETATM   24  N1  UNK   900      89.136 -73.187-249.709  1.00  0.00    -0.214 NA
BRANCH  24  25
HETATM   25  C2  UNK   900      88.320 -72.508-250.684  1.00  0.00     0.109 C 
HETATM   26  C3  UNK   900      87.880 -73.380-251.818  1.00  0.00     0.025 C 
HETATM   27  C4  UNK   900      86.774 -74.334-251.454  1.00  0.00     0.002 C 
HETATM   28  C5  UNK   900      85.654 -73.677-250.693  1.00  0.00     0.000 C 
HETATM   29  C6  UNK   900      85.832 -72.164-250.709  1.00  0.00     0.002 C 
HETATM   30  C7  UNK   900      87.148 -71.835-250.014  1.00  0.00     0.025 C 
ENDBRANCH  24  25
ENDBRANCH  21  22
ENDBRANCH   1  21
TORSDOF 6
ENDMDL
MODEL 5
REMARK VINA RESULT:      -5.7     37.839     39.215
REMARK  6 active torsions:
REMARK  status: ('A' for Active; 'I' for Inactive)
REMARK       I    between atoms: C1_2  and  N1_3 
REMARK    1  A    between atoms: C1_2  and  O2_10 
REMARK    2  A    between atoms: N1_3  and  C2_4 
REMARK    3  A    between atoms: O2_10  and  C8_11 
REMARK    4  A    between atoms: C11_15  and  N2_16 
REMARK    5  A    between atoms: N2_16  and  C12_17 
REMARK    6  A    between atoms: C15_21  and  C16_22 
ROOT
HETATM    1  C8  UNK   900     103.425 -61.281-282.613  1.00  0.00     0.185 C 
HETATM    2  C9  UNK   900     101.934 -61.148-281.910  1.00  0.00     0.175 C 
HETATM    3  O3  UNK   900     102.030 -62.097-280.951  1.00  0.00    -0.349 OA
HETATM    4  C10 UNK   900     101.784 -63.083-282.084  1.00  0.00     0.170 C 
HETATM    5  C11 UNK   900     102.060 -64.394-280.986  1.00  0.00     0.181 C 
HETATM    6  C21 UNK   900     103.664 -64.514-281.344  1.00  0.00     0.170 C 
HETATM    7  O4  UNK   900     103.867 -63.151-281.090  1.00  0.00    -0.349 OA
HETATM    8  C22 UNK   900     103.440 -63.023-282.541  1.00  0.00     0.175 C 
ENDROOT
BRANCH   5   9
HETATM    9  N2  UNK   900     101.691 -65.476-282.084  1.00  0.00    -0.083 NA
BRANCH   9  10
HETATM   10  C12 UNK   900     101.806 -66.812-281.648  1.00  0.00     0.746 C 
HETATM   11  N3  UNK   900     102.517 -67.766-282.244  1.00  0.00    -0.058 NA
HETATM   12  C13 UNK   900     102.552 -68.990-281.662  1.00  0.00     0.119 C 
HETATM   13  C14 UNK   900     101.633 -69.338-280.679  1.00  0.00     0.037 C 
HETATM   14  C15 UNK   900     100.898 -68.329-280.079  1.00  0.00     0.079 C 
HETATM   15  N4  UNK   900     101.239 -67.076-280.446  1.00  0.00    -0.064 NA
BRANCH  14  16
HETATM   16  C16 UNK   900      99.659 -68.606-279.287  1.00  0.00     0.041 C 
HETATM   17  C17 UNK   900      98.620 -67.616-279.731  1.00  0.00     0.006 C 
HETATM   18  C18 UNK   900      97.909 -68.363-280.838  1.00  0.00     0.000 C 
HETATM   19  C19 UNK   900      97.839 -69.796-280.324  1.00  0.00     0.000 C 
HETATM   20  C20 UNK   900      99.131 -69.978-279.554  1.00  0.00     0.006 C 
ENDBRANCH  14  16
ENDBRANCH   9  10
ENDBRANCH   5   9
BRANCH   1  21
HETATM   21  O2  UNK   900     104.147 -61.045-281.252  1.00  0.00    -0.281 OA
BRANCH  21  22
HETATM   22  C1  UNK   900     105.074 -60.015-281.384  1.00  0.00     0.384 C 
HETATM   23  O1  UNK   900     105.438 -59.966-281.872  1.00  0.00    -0.236 OA
HETATM   24  N1  UNK   900     105.162 -59.097-280.301  1.00  0.00    -0.214 NA
BRANCH  24  25
HETATM   25  C2  UNK   900     105.854 -57.853-280.526  1.00  0.00     0.109 C 
HETATM   26  C3  UNK   900     105.035 -56.640-280.210  1.00  0.00     0.025 C 
HETATM   27  C4  UNK   900     104.891 -56.374-278.735  1.00  0.00     0.002 C 
HETATM   28  C5  UNK   900     106.195 -56.467-277.989  1.00  0.00     0.000 C 
HETATM   29  C6  UNK   900     107.353 -56.565-278.974  1.00  0.00     0.002 C 
HETATM   30  C7  UNK   900     107.171 -57.839-279.791  1.00  0.00     0.025 C 
ENDBRANCH  24  25
ENDBRANCH  21  22
ENDBRANCH   1  21
TORSDOF 6
ENDMDL
MODEL 6
REMARK VINA RESULT:      -5.7     17.038     19.592
REMARK  6 active torsions:
REMARK  status: ('A' for Active; 'I' for Inactive)
REMARK       I    between atoms: C1_2  and  N1_3 
REMARK    1  A    between atoms: C1_2  and  O2_10 
REMARK    2  A    between atoms: N1_3  and  C2_4 
REMARK    3  A    between atoms: O2_10  and  C8_11 
REMARK    4  A    between atoms: C11_15  and  N2_16 
REMARK    5  A    between atoms: N2_16  and  C12_17 
REMARK    6  A    between atoms: C15_21  and  C16_22 
ROOT
HETATM    1  C8  UNK   900     114.716 -78.195-262.432  1.00  0.00     0.185 C 
HETATM    2  C9  UNK   900     114.220 -77.738-260.922  1.00  0.00     0.175 C 
HETATM    3  O3  UNK   900     114.180 -76.395-261.074  1.00  0.00    -0.349 OA
HETATM    4  C10 UNK   900     115.693 -76.463-260.927  1.00  0.00     0.170 C 
HETATM    5  C11 UNK   900     115.791 -74.770-261.284  1.00  0.00     0.181 C 
HETATM    6  C21 UNK   900     116.023 -75.002-262.898  1.00  0.00     0.170 C 
HETATM    7  O4  UNK   900     114.884 -75.813-262.990  1.00  0.00    -0.349 OA
HETATM    8  C22 UNK   900     115.868 -76.893-262.581  1.00  0.00     0.175 C 
ENDROOT
BRANCH   5   9
HETATM    9  N2  UNK   900     117.354 -74.739-261.021  1.00  0.00    -0.083 NA
BRANCH   9  10
HETATM   10  C12 UNK   900     117.842 -73.502-260.554  1.00  0.00     0.746 C 
HETATM   11  N3  UNK   900     119.121 -73.136-260.511  1.00  0.00    -0.058 NA
HETATM   12  C13 UNK   900     119.411 -71.886-260.072  1.00  0.00     0.119 C 
HETATM   13  C14 UNK   900     118.464 -71.135-259.387  1.00  0.00     0.037 C 
HETATM   14  C15 UNK   900     117.141 -71.539-259.438  1.00  0.00     0.079 C 
HETATM   15  N4  UNK   900     116.891 -72.582-260.257  1.00  0.00    -0.064 NA
BRANCH  14  16
HETATM   16  C16 UNK   900     116.114 -71.034-258.474  1.00  0.00     0.041 C 
HETATM   17  C17 UNK   900     115.408 -72.235-257.911  1.00  0.00     0.006 C 
HETATM   18  C18 UNK   900     116.217 -72.537-256.669  1.00  0.00     0.000 C 
HETATM   19  C19 UNK   900     116.553 -71.160-256.109  1.00  0.00     0.000 C 
HETATM   20  C20 UNK   900     116.741 -70.295-257.338  1.00  0.00     0.006 C 
ENDBRANCH  14  16
ENDBRANCH   9  10
ENDBRANCH   5   9
BRANCH   1  21
HETATM   21  O2  UNK   900     113.526 -77.450-263.108  1.00  0.00    -0.281 OA
BRANCH  21  22
HETATM   22  C1  UNK   900     112.460 -78.328-263.282  1.00  0.00     0.384 C 
HETATM   23  O1  UNK   900     112.509 -78.837-263.616  1.00  0.00    -0.236 OA
HETATM   24  N1  UNK   900     111.229 -77.963-262.670  1.00  0.00    -0.214 NA
BRANCH  24  25
HETATM   25  C2  UNK   900     110.211 -78.976-262.544  1.00  0.00     0.109 C 
HETATM   26  C3  UNK   900     110.606 -80.126-261.670  1.00  0.00     0.025 C 
HETATM   27  C4  UNK   900     110.570 -79.807-260.199  1.00  0.00     0.002 C 
HETATM   28  C5  UNK   900     109.310 -79.099-259.779  1.00  0.00     0.000 C 
HETATM   29  C6  UNK   900     108.300 -79.114-260.920  1.00  0.00     0.002 C 
HETATM   30  C7  UNK   900     108.908 -78.362-262.099  1.00  0.00     0.025 C 
ENDBRANCH  24  25
ENDBRANCH  21  22
ENDBRANCH   1  21
TORSDOF 6
ENDMDL
MODEL 7
REMARK VINA RESULT:      -5.7     29.396     31.813
REMARK  6 active torsions:
REMARK  status: ('A' for Active; 'I' for Inactive)
REMARK       I    between atoms: C1_2  and  N1_3 
REMARK    1  A    between atoms: C1_2  and  O2_10 
REMARK    2  A    between atoms: N1_3  and  C2_4 
REMARK    3  A    between atoms: O2_10  and  C8_11 
REMARK    4  A    between atoms: C11_15  and  N2_16 
REMARK    5  A    between atoms: N2_16  and  C12_17 
REMARK    6  A    between atoms: C15_21  and  C16_22 
ROOT
HETATM    1  C8  UNK   900      88.633 -85.078-261.376  1.00  0.00     0.185 C 
HETATM    2  C9  UNK   900      88.869 -85.138-263.012  1.00  0.00     0.175 C 
HETATM    3  O3  UNK   900      88.953 -83.818-263.295  1.00  0.00    -0.349 OA
HETATM    4  C10 UNK   900      87.436 -83.827-263.171  1.00  0.00     0.170 C 
HETATM    5  C11 UNK   900      87.424 -82.104-263.350  1.00  0.00     0.181 C 
HETATM    6  C21 UNK   900      87.469 -81.816-261.728  1.00  0.00     0.170 C 
HETATM    7  O4  UNK   900      88.596 -82.635-261.570  1.00  0.00    -0.349 OA
HETATM    8  C22 UNK   900      87.541 -83.720-261.460  1.00  0.00     0.175 C 
ENDROOT
BRANCH   5   9
HETATM    9  N2  UNK   900      85.840 -82.052-263.358  1.00  0.00    -0.083 NA
BRANCH   9  10
HETATM   10  C12 UNK   900      85.300 -80.808-263.743  1.00  0.00     0.746 C 
HETATM   11  N3  UNK   900      84.065 -80.382-263.485  1.00  0.00    -0.058 NA
HETATM   12  C13 UNK   900      83.724 -79.135-263.893  1.00  0.00     0.119 C 
HETATM   13  C14 UNK   900      84.500 -78.453-264.823  1.00  0.00     0.037 C 
HETATM   14  C15 UNK   900      85.777 -78.919-265.082  1.00  0.00     0.079 C 
HETATM   15  N4  UNK   900      86.182 -79.946-264.305  1.00  0.00    -0.064 NA
BRANCH  14  16
HETATM   16  C16 UNK   900      86.552 -78.496-266.291  1.00  0.00     0.041 C 
HETATM   17  C17 UNK   900      87.609 -77.536-265.824  1.00  0.00     0.006 C 
HETATM   18  C18 UNK   900      88.787 -78.448-265.563  1.00  0.00     0.000 C 
HETATM   19  C19 UNK   900      88.721 -79.463-266.698  1.00  0.00     0.000 C 
HETATM   20  C20 UNK   900      87.238 -79.655-266.938  1.00  0.00     0.006 C 
ENDBRANCH  14  16
ENDBRANCH   9  10
ENDBRANCH   5   9
BRANCH   1  21
HETATM   21  O2  UNK   900      89.931 -84.243-261.164  1.00  0.00    -0.281 OA
BRANCH  21  22
HETATM   22  C1  UNK   900      90.916 -85.043-260.591  1.00  0.00     0.384 C 
HETATM   23  O1  UNK   900      90.901 -85.206-260.002  1.00  0.00    -0.236 OA
HETATM   24  N1  UNK   900      91.988 -85.437-261.438  1.00  0.00    -0.214 NA
BRANCH  24  25
HETATM   25  C2  UNK   900      92.840 -86.512-260.995  1.00  0.00     0.109 C 
HETATM   26  C3  UNK   900      92.354 -87.872-261.390  1.00  0.00     0.025 C 
HETATM   27  C4  UNK   900      92.581 -88.197-262.843  1.00  0.00     0.002 C 
HETATM   28  C5  UNK   900      93.972 -87.864-263.311  1.00  0.00     0.000 C 
HETATM   29  C6  UNK   900      94.852 -87.511-262.118  1.00  0.00     0.002 C 
HETATM   30  C7  UNK   900      94.261 -86.279-261.442  1.00  0.00     0.025 C 
ENDBRANCH  24  25
ENDBRANCH  21  22
ENDBRANCH   1  21
TORSDOF 6
ENDMDL
MODEL 8
REMARK VINA RESULT:      -5.6     16.230     20.508
REMARK  6 active torsions:
REMARK  status: ('A' for Active; 'I' for Inactive)
REMARK       I    between atoms: C1_2  and  N1_3 
REMARK    1  A    between atoms: C1_2  and  O2_10 
REMARK    2  A    between atoms: N1_3  and  C2_4 
REMARK    3  A    between atoms: O2_10  and  C8_11 
REMARK    4  A    between atoms: C11_15  and  N2_16 
REMARK    5  A    between atoms: N2_16  and  C12_17 
REMARK    6  A    between atoms: C15_21  and  C16_22 
ROOT
HETATM    1  C8  UNK   900      96.912 -57.552-253.837  1.00  0.00     0.185 C 
HETATM    2  C9  UNK   900      98.071 -56.374-253.896  1.00  0.00     0.175 C 
HETATM    3  O3  UNK   900      99.185 -57.117-253.707  1.00  0.00    -0.349 OA
HETATM    4  C10 UNK   900      98.778 -57.119-252.240  1.00  0.00     0.170 C 
HETATM    5  C11 UNK   900     100.074 -58.218-251.896  1.00  0.00     0.181 C 
HETATM    6  C21 UNK   900      99.138 -59.562-252.068  1.00  0.00     0.170 C 
HETATM    7  O4  UNK   900      98.702 -59.150-253.336  1.00  0.00    -0.349 OA
HETATM    8  C22 UNK   900      97.669 -58.402-252.515  1.00  0.00     0.175 C 
ENDROOT
BRANCH   5   9
HETATM    9  N2  UNK   900      99.788 -58.167-250.337  1.00  0.00    -0.083 NA
BRANCH   9  10
HETATM   10  C12 UNK   900     100.907 -58.451-249.530  1.00  0.00     0.746 C 
HETATM   11  N3  UNK   900     100.995 -58.240-248.219  1.00  0.00    -0.058 NA
HETATM   12  C13 UNK   900     102.136 -58.614-247.589  1.00  0.00     0.119 C 
HETATM   13  C14 UNK   900     103.289 -58.898-248.312  1.00  0.00     0.037 C 
HETATM   14  C15 UNK   900     103.174 -59.105-249.677  1.00  0.00     0.079 C 
HETATM   15  N4  UNK   900     101.911 -59.118-250.151  1.00  0.00    -0.064 NA
BRANCH  14  16
HETATM   16  C16 UNK   900     104.357 -59.063-250.593  1.00  0.00     0.041 C 
HETATM   17  C17 UNK   900     105.282 -60.170-250.172  1.00  0.00     0.006 C 
HETATM   18  C18 UNK   900     104.829 -61.322-251.041  1.00  0.00     0.000 C 
HETATM   19  C19 UNK   900     104.520 -60.668-252.382  1.00  0.00     0.000 C 
HETATM   20  C20 UNK   900     103.963 -59.309-252.013  1.00  0.00     0.006 C 
ENDBRANCH  14  16
ENDBRANCH   9  10
ENDBRANCH   5   9
BRANCH   1  21
HETATM   21  O2  UNK   900      97.599 -58.361-254.978  1.00  0.00    -0.281 OA
BRANCH  21  22
HETATM   22  C1  UNK   900      96.734 -58.472-256.062  1.00  0.00     0.384 C 
HETATM   23  O1  UNK   900      96.887 -58.772-256.571  1.00  0.00    -0.236 OA
HETATM   24  N1  UNK   900      95.479 -57.813-255.943  1.00  0.00    -0.214 NA
BRANCH  24  25
HETATM   25  C2  UNK   900      94.440 -58.165-256.878  1.00  0.00     0.109 C 
HETATM   26  C3  UNK   900      93.239 -58.793-256.242  1.00  0.00     0.025 C 
HETATM   27  C4  UNK   900      92.354 -57.812-255.520  1.00  0.00     0.002 C 
HETATM   28  C5  UNK   900      92.065 -56.574-256.326  1.00  0.00     0.000 C 
HETATM   29  C6  UNK   900      92.552 -56.760-257.758  1.00  0.00     0.002 C 
HETATM   30  C7  UNK   900      94.061 -56.972-257.720  1.00  0.00     0.025 C 
ENDBRANCH  24  25
ENDBRANCH  21  22
ENDBRANCH   1  21
TORSDOF 6
ENDMDL
MODEL 9
REMARK VINA RESULT:      -5.5     34.500     37.236
REMARK  6 active torsions:
REMARK  status: ('A' for Active; 'I' for Inactive)
REMARK       I    between atoms: C1_2  and  N1_3 
REMARK    1  A    between atoms: C1_2  and  O2_10 
REMARK    2  A    between atoms: N1_3  and  C2_4 
REMARK    3  A    between atoms: O2_10  and  C8_11 
REMARK    4  A    between atoms: C11_15  and  N2_16 
REMARK    5  A    between atoms: N2_16  and  C12_17 
REMARK    6  A    between atoms: C15_21  and  C16_22 
ROOT
HETATM    1  C8  UNK   900     105.399 -72.522-279.729  1.00  0.00     0.185 C 
HETATM    2  C9  UNK   900     104.747 -71.250-278.898  1.00  0.00     0.175 C 
HETATM    3  O3  UNK   900     103.451 -71.634-278.841  1.00  0.00    -0.349 OA
HETATM    4  C10 UNK   900     103.383 -71.165-280.287  1.00  0.00     0.170 C 
HETATM    5  C11 UNK   900     101.765 -71.777-280.395  1.00  0.00     0.181 C 
HETATM    6  C21 UNK   900     102.232 -73.243-280.984  1.00  0.00     0.170 C 
HETATM    7  O4  UNK   900     103.130 -73.431-279.924  1.00  0.00    -0.349 OA
HETATM    8  C22 UNK   900     104.056 -72.647-280.835  1.00  0.00     0.175 C 
ENDROOT
BRANCH   5   9
HETATM    9  N2  UNK   900     101.577 -71.201-281.860  1.00  0.00    -0.083 NA
BRANCH   9  10
HETATM   10  C12 UNK   900     100.239 -70.934-282.215  1.00  0.00     0.746 C 
HETATM   11  N3  UNK   900      99.735 -70.986-283.445  1.00  0.00    -0.058 NA
HETATM   12  C13 UNK   900      98.410 -70.742-283.601  1.00  0.00     0.119 C 
HETATM   13  C14 UNK   900      97.673 -70.141-282.587  1.00  0.00     0.037 C 
HETATM   14  C15 UNK   900      98.222 -70.090-281.317  1.00  0.00     0.079 C 
HETATM   15  N4  UNK   900      99.395 -70.742-281.172  1.00  0.00    -0.064 NA
BRANCH  14  16
HETATM   16  C16 UNK   900      97.695 -69.177-280.255  1.00  0.00     0.041 C 
HETATM   17  C17 UNK   900      98.822 -68.916-279.297  1.00  0.00     0.006 C 
HETATM   18  C18 UNK   900      99.450 -67.662-279.865  1.00  0.00     0.000 C 
HETATM   19  C19 UNK   900      98.256 -66.836-280.329  1.00  0.00     0.000 C 
HETATM   20  C20 UNK   900      97.261 -67.865-280.823  1.00  0.00     0.006 C 
ENDBRANCH  14  16
ENDBRANCH   9  10
ENDBRANCH   5   9
BRANCH   1  21
HETATM   21  O2  UNK   900     104.861 -73.550-278.688  1.00  0.00    -0.281 OA
BRANCH  21  22
HETATM   22  C1  UNK   900     105.806 -73.741-277.685  1.00  0.00     0.384 C 
HETATM   23  O1  UNK   900     106.402 -73.806-277.807  1.00  0.00    -0.236 OA
HETATM   24  N1  UNK   900     105.314 -73.817-276.353  1.00  0.00    -0.214 NA
BRANCH  24  25
HETATM   25  C2  UNK   900     106.260 -73.685-275.274  1.00  0.00     0.109 C 
HETATM   26  C3  UNK   900     105.949 -72.566-274.329  1.00  0.00     0.025 C 
HETATM   27  C4  UNK   900     104.812 -72.868-273.388  1.00  0.00     0.002 C 
HETATM   28  C5  UNK   900     104.923 -74.224-272.746  1.00  0.00     0.000 C 
HETATM   29  C6  UNK   900     106.290 -74.829-273.038  1.00  0.00     0.002 C 
HETATM   30  C7  UNK   900     106.420 -74.997-274.547  1.00  0.00     0.025 C 
ENDBRANCH  24  25
ENDBRANCH  21  22
ENDBRANCH   1  21
TORSDOF 6
ENDMDL
