MODEL 1
REMARK VINA RESULT:      -5.7      0.000      0.000
REMARK  5 active torsions:
REMARK  status: ('A' for Active; 'I' for Inactive)
REMARK    1  A    between atoms: C1_2  and  C2_3 
REMARK       I    between atoms: C1_2  and  N3_18 
REMARK    2  A    between atoms: C2_3  and  C3_4 
REMARK    3  A    between atoms: C3_4  and  C4_5 
REMARK    4  A    between atoms: N3_18  and  C13_19 
REMARK    5  A    between atoms: C13_19  and  C14_20 
ROOT
HETATM    1  C4  UNK   900     108.893 -73.665-276.794  1.00  0.00     0.187 C 
HETATM    2  N1  UNK   900     108.548 -74.144-275.339  1.00  0.00    -0.227 NA
HETATM    3  C5  UNK   900     107.361 -74.546-274.777  1.00  0.00     0.277 C 
HETATM    4  O2  UNK   900     107.449 -75.180-273.682  1.00  0.00    -0.266 OA
HETATM    5  C6  UNK   900     106.010 -74.321-275.307  1.00  0.00     0.075 C 
HETATM    6  C7  UNK   900     105.031 -74.861-274.515  1.00  0.00     0.006 C 
HETATM    7  C8  UNK   900     103.737 -74.753-275.015  1.00  0.00     0.000 C 
HETATM    8  C9  UNK   900     103.485 -74.196-276.264  1.00  0.00     0.002 C 
HETATM    9  C10 UNK   900     104.410 -73.280-276.752  1.00  0.00     0.019 C 
HETATM   10  C11 UNK   900     105.668 -73.333-276.223  1.00  0.00     0.089 C 
HETATM   11  N2  UNK   900     106.551 -72.290-276.661  1.00  0.00    -0.210 NA
HETATM   12  C12 UNK   900     107.928 -72.379-276.717  1.00  0.00     0.278 C 
HETATM   13  O3  UNK   900     108.559 -71.430-277.272  1.00  0.00    -0.268 OA
ENDROOT
BRANCH   1  14
HETATM   14  C3  UNK   900     107.774 -74.628-277.519  1.00  0.00     0.044 C 
BRANCH  14  15
HETATM   15  C2  UNK   900     108.472 -75.794-278.087  1.00  0.00     0.092 C 
BRANCH  15  16
HETATM   16  C1  UNK   900     108.146 -77.105-277.444  1.00  0.00     0.252 C 
HETATM   17  O1  UNK   900     108.595 -77.373-276.519  1.00  0.00    -0.271 OA
HETATM   18  N3  UNK   900     106.880 -77.747-277.667  1.00  0.00    -0.231 NA
BRANCH  18  19
HETATM   19  C13 UNK   900     105.862 -77.812-276.632  1.00  0.00     0.180 C 
BRANCH  19  20
HETATM   20  C14 UNK   900     104.491 -77.712-277.149  1.00  0.00     0.102 C 
HETATM   21  C15 UNK   900     104.247 -77.199-278.419  1.00  0.00     0.024 C 
HETATM   22  C16 UNK   900     102.880 -76.983-278.514  1.00  0.00     0.029 C 
HETATM   23  C17 UNK   900     102.353 -77.611-277.404  1.00  0.00     0.122 C 
HETATM   24  O4  UNK   900     103.331 -77.991-276.631  1.00  0.00    -0.307 OA
ENDBRANCH  19  20
ENDBRANCH  18  19
ENDBRANCH  15  16
ENDBRANCH  14  15
ENDBRANCH   1  14
TORSDOF 5
ENDMDL
MODEL 2
REMARK VINA RESULT:      -5.5      1.992      3.984
REMARK  5 active torsions:
REMARK  status: ('A' for Active; 'I' for Inactive)
REMARK    1  A    between atoms: C1_2  and  C2_3 
REMARK       I    between atoms: C1_2  and  N3_18 
REMARK    2  A    between atoms: C2_3  and  C3_4 
REMARK    3  A    between atoms: C3_4  and  C4_5 
REMARK    4  A    between atoms: N3_18  and  C13_19 
REMARK    5  A    between atoms: C13_19  and  C14_20 
ROOT
HETATM    1  C4  UNK   900     104.314 -74.634-274.838  1.00  0.00     0.187 C 
HETATM    2  N1  UNK   900     104.173 -73.198-275.456  1.00  0.00    -0.227 NA
HETATM    3  C5  UNK   900     104.990 -72.496-276.308  1.00  0.00     0.277 C 
HETATM    4  O2  UNK   900     104.464 -71.497-276.888  1.00  0.00    -0.266 OA
HETATM    5  C6  UNK   900     106.397 -72.777-276.617  1.00  0.00     0.075 C 
HETATM    6  C7  UNK   900     106.931 -71.896-277.521  1.00  0.00     0.006 C 
HETATM    7  C8  UNK   900     108.237 -72.169-277.914  1.00  0.00     0.000 C 
HETATM    8  C9  UNK   900     108.910 -73.299-277.465  1.00  0.00     0.002 C 
HETATM    9  C10 UNK   900     108.512 -73.835-276.246  1.00  0.00     0.019 C 
HETATM   10  C11 UNK   900     107.254 -73.523-275.815  1.00  0.00     0.089 C 
HETATM   11  N2  UNK   900     106.934 -73.991-274.497  1.00  0.00    -0.210 NA
HETATM   12  C12 UNK   900     105.663 -74.276-274.037  1.00  0.00     0.278 C 
HETATM   13  O3  UNK   900     105.557 -74.827-272.901  1.00  0.00    -0.268 OA
ENDROOT
BRANCH   1  14
HETATM   14  C3  UNK   900     105.095 -75.263-276.142  1.00  0.00     0.044 C 
BRANCH  14  15
HETATM   15  C2  UNK   900     105.326 -76.695-275.891  1.00  0.00     0.092 C 
BRANCH  15  16
HETATM   16  C1  UNK   900     104.958 -77.606-277.020  1.00  0.00     0.252 C 
HETATM   17  O1  UNK   900     104.788 -78.639-276.840  1.00  0.00    -0.271 OA
HETATM   18  N3  UNK   900     104.264 -77.111-278.177  1.00  0.00    -0.231 NA
BRANCH  18  19
HETATM   19  C13 UNK   900     102.868 -77.427-278.426  1.00  0.00     0.180 C 
BRANCH  19  20
HETATM   20  C14 UNK   900     101.934 -76.669-277.582  1.00  0.00     0.102 C 
HETATM   21  C15 UNK   900     101.750 -75.304-277.777  1.00  0.00     0.024 C 
HETATM   22  C16 UNK   900     101.037 -74.831-276.685  1.00  0.00     0.029 C 
HETATM   23  C17 UNK   900     100.615 -75.968-276.029  1.00  0.00     0.122 C 
HETATM   24  O4  UNK   900     101.186 -77.005-276.572  1.00  0.00    -0.307 OA
ENDBRANCH  19  20
ENDBRANCH  18  19
ENDBRANCH  15  16
ENDBRANCH  14  15
ENDBRANCH   1  14
TORSDOF 5
ENDMDL
MODEL 3
REMARK VINA RESULT:      -4.7      2.166      4.360
REMARK  5 active torsions:
REMARK  status: ('A' for Active; 'I' for Inactive)
REMARK    1  A    between atoms: C1_2  and  C2_3 
REMARK       I    between atoms: C1_2  and  N3_18 
REMARK    2  A    between atoms: C2_3  and  C3_4 
REMARK    3  A    between atoms: C3_4  and  C4_5 
REMARK    4  A    between atoms: N3_18  and  C13_19 
REMARK    5  A    between atoms: C13_19  and  C14_20 
ROOT
HETATM    1  C4  UNK   900     104.032 -74.269-274.600  1.00  0.00     0.187 C 
HETATM    2  N1  UNK   900     104.024 -72.918-275.398  1.00  0.00    -0.227 NA
HETATM    3  C5  UNK   900     104.926 -72.388-276.288  1.00  0.00     0.277 C 
HETATM    4  O2  UNK   900     104.501 -71.438-277.014  1.00  0.00    -0.266 OA
HETATM    5  C6  UNK   900     106.321 -72.802-276.487  1.00  0.00     0.075 C 
HETATM    6  C7  UNK   900     106.956 -72.082-277.465  1.00  0.00     0.006 C 
HETATM    7  C8  UNK   900     108.254 -72.492-277.754  1.00  0.00     0.000 C 
HETATM    8  C9  UNK   900     108.821 -73.599-277.134  1.00  0.00     0.002 C 
HETATM    9  C10 UNK   900     108.334 -73.947-275.879  1.00  0.00     0.019 C 
HETATM   10  C11 UNK   900     107.085 -73.497-275.556  1.00  0.00     0.089 C 
HETATM   11  N2  UNK   900     106.676 -73.769-274.208  1.00  0.00    -0.210 NA
HETATM   12  C12 UNK   900     105.369 -73.905-273.782  1.00  0.00     0.278 C 
HETATM   13  O3  UNK   900     105.175 -74.298-272.592  1.00  0.00    -0.268 OA
ENDROOT
BRANCH   1  14
HETATM   14  C3  UNK   900     104.819 -75.112-275.773  1.00  0.00     0.044 C 
BRANCH  14  15
HETATM   15  C2  UNK   900     103.851 -76.016-276.415  1.00  0.00     0.092 C 
BRANCH  15  16
HETATM   16  C1  UNK   900     103.914 -76.059-277.909  1.00  0.00     0.252 C 
HETATM   17  O1  UNK   900     104.371 -75.266-278.449  1.00  0.00    -0.271 OA
HETATM   18  N3  UNK   900     103.936 -77.311-278.616  1.00  0.00    -0.231 NA
BRANCH  18  19
HETATM   19  C13 UNK   900     105.136 -77.796-279.275  1.00  0.00     0.180 C 
BRANCH  19  20
HETATM   20  C14 UNK   900     105.896 -78.765-278.475  1.00  0.00     0.102 C 
HETATM   21  C15 UNK   900     105.336 -79.343-277.340  1.00  0.00     0.024 C 
HETATM   22  C16 UNK   900     106.361 -79.988-276.664  1.00  0.00     0.029 C 
HETATM   23  C17 UNK   900     107.417 -79.981-277.552  1.00  0.00     0.122 C 
HETATM   24  O4  UNK   900     107.105 -79.235-278.573  1.00  0.00    -0.307 OA
ENDBRANCH  19  20
ENDBRANCH  18  19
ENDBRANCH  15  16
ENDBRANCH  14  15
ENDBRANCH   1  14
TORSDOF 5
ENDMDL
MODEL 4
REMARK VINA RESULT:      -4.6     33.510     35.678
REMARK  5 active torsions:
REMARK  status: ('A' for Active; 'I' for Inactive)
REMARK    1  A    between atoms: C1_2  and  C2_3 
REMARK       I    between atoms: C1_2  and  N3_18 
REMARK    2  A    between atoms: C2_3  and  C3_4 
REMARK    3  A    between atoms: C3_4  and  C4_5 
REMARK    4  A    between atoms: N3_18  and  C13_19 
REMARK    5  A    between atoms: C13_19  and  C14_20 
ROOT
HETATM    1  C4  UNK   900     102.281 -65.662-240.184  1.00  0.00     0.187 C 
HETATM    2  N1  UNK   900     102.173 -67.141-239.669  1.00  0.00    -0.227 NA
HETATM    3  C5  UNK   900     101.502 -68.228-240.174  1.00  0.00     0.277 C 
HETATM    4  O2  UNK   900     101.859 -69.360-239.728  1.00  0.00    -0.266 OA
HETATM    5  C6  UNK   900     100.423 -68.217-241.170  1.00  0.00     0.075 C 
HETATM    6  C7  UNK   900      99.969 -69.473-241.477  1.00  0.00     0.006 C 
HETATM    7  C8  UNK   900      99.006 -69.527-242.480  1.00  0.00     0.000 C 
HETATM    8  C9  UNK   900      98.599 -68.384-243.158  1.00  0.00     0.002 C 
HETATM    9  C10 UNK   900      98.726 -67.170-242.494  1.00  0.00     0.019 C 
HETATM   10  C11 UNK   900      99.622 -67.120-241.464  1.00  0.00     0.089 C 
HETATM   11  N2  UNK   900      99.625 -65.889-240.727  1.00  0.00    -0.210 NA
HETATM   12  C12 UNK   900     100.704 -65.378-240.031  1.00  0.00     0.278 C 
HETATM   13  O3  UNK   900     100.600 -64.206-239.559  1.00  0.00    -0.268 OA
ENDROOT
BRANCH   1  14
HETATM   14  C3  UNK   900     102.189 -66.069-241.775  1.00  0.00     0.044 C 
BRANCH  14  15
HETATM   15  C2  UNK   900     103.535 -65.944-242.358  1.00  0.00     0.092 C 
BRANCH  15  16
HETATM   16  C1  UNK   900     104.315 -67.219-242.437  1.00  0.00     0.252 C 
HETATM   17  O1  UNK   900     103.810 -68.153-242.480  1.00  0.00    -0.271 OA
HETATM   18  N3  UNK   900     105.622 -67.253-243.033  1.00  0.00    -0.231 NA
BRANCH  18  19
HETATM   19  C13 UNK   900     105.859 -67.877-244.323  1.00  0.00     0.180 C 
BRANCH  19  20
HETATM   20  C14 UNK   900     106.437 -69.225-244.226  1.00  0.00     0.102 C 
HETATM   21  C15 UNK   900     107.083 -69.800-245.315  1.00  0.00     0.024 C 
HETATM   22  C16 UNK   900     107.275 -71.140-245.013  1.00  0.00     0.029 C 
HETATM   23  C17 UNK   900     106.969 -71.238-243.671  1.00  0.00     0.122 C 
HETATM   24  O4  UNK   900     106.461 -70.107-243.270  1.00  0.00    -0.307 OA
ENDBRANCH  19  20
ENDBRANCH  18  19
ENDBRANCH  15  16
ENDBRANCH  14  15
ENDBRANCH   1  14
TORSDOF 5
ENDMDL
MODEL 5
REMARK VINA RESULT:      -4.5     13.463     16.820
REMARK  5 active torsions:
REMARK  status: ('A' for Active; 'I' for Inactive)
REMARK    1  A    between atoms: C1_2  and  C2_3 
REMARK       I    between atoms: C1_2  and  N3_18 
REMARK    2  A    between atoms: C2_3  and  C3_4 
REMARK    3  A    between atoms: C3_4  and  C4_5 
REMARK    4  A    between atoms: N3_18  and  C13_19 
REMARK    5  A    between atoms: C13_19  and  C14_20 
ROOT
HETATM    1  C4  UNK   900      89.091 -78.420-275.207  1.00  0.00     0.187 C 
HETATM    2  N1  UNK   900      89.079 -77.483-273.947  1.00  0.00    -0.227 NA
HETATM    3  C5  UNK   900      89.475 -77.706-272.651  1.00  0.00     0.277 C 
HETATM    4  O2  UNK   900      89.649 -76.673-271.935  1.00  0.00    -0.266 OA
HETATM    5  C6  UNK   900      89.716 -79.005-272.010  1.00  0.00     0.075 C 
HETATM    6  C7  UNK   900      90.117 -78.889-270.705  1.00  0.00     0.006 C 
HETATM    7  C8  UNK   900      90.442 -80.086-270.076  1.00  0.00     0.000 C 
HETATM    8  C9  UNK   900      90.424 -81.295-270.762  1.00  0.00     0.002 C 
HETATM    9  C10 UNK   900      89.582 -81.391-271.864  1.00  0.00     0.019 C 
HETATM   10  C11 UNK   900      89.202 -80.219-272.453  1.00  0.00     0.089 C 
HETATM   11  N2  UNK   900      88.234 -80.358-273.502  1.00  0.00    -0.210 NA
HETATM   12  C12 UNK   900      88.071 -79.485-274.561  1.00  0.00     0.278 C 
HETATM   13  O3  UNK   900      87.279 -79.824-275.489  1.00  0.00    -0.268 OA
ENDROOT
BRANCH   1  14
HETATM   14  C3  UNK   900      90.444 -79.237-274.752  1.00  0.00     0.044 C 
BRANCH  14  15
HETATM   15  C2  UNK   900      90.906 -80.033-275.900  1.00  0.00     0.092 C 
BRANCH  15  16
HETATM   16  C1  UNK   900      90.887 -81.515-275.696  1.00  0.00     0.252 C 
HETATM   17  O1  UNK   900      90.545 -82.157-276.470  1.00  0.00    -0.271 OA
HETATM   18  N3  UNK   900      91.811 -82.152-274.798  1.00  0.00    -0.231 NA
BRANCH  18  19
HETATM   19  C13 UNK   900      92.914 -82.963-275.283  1.00  0.00     0.180 C 
BRANCH  19  20
HETATM   20  C14 UNK   900      93.957 -82.187-275.967  1.00  0.00     0.102 C 
HETATM   21  C15 UNK   900      94.164 -82.327-277.335  1.00  0.00     0.024 C 
HETATM   22  C16 UNK   900      95.359 -81.690-277.633  1.00  0.00     0.029 C 
HETATM   23  C17 UNK   900      95.672 -80.989-276.486  1.00  0.00     0.122 C 
HETATM   24  O4  UNK   900      94.843 -81.335-275.542  1.00  0.00    -0.307 OA
ENDBRANCH  19  20
ENDBRANCH  18  19
ENDBRANCH  15  16
ENDBRANCH  14  15
ENDBRANCH   1  14
TORSDOF 5
ENDMDL
MODEL 6
REMARK VINA RESULT:      -4.4     27.100     28.846
REMARK  5 active torsions:
REMARK  status: ('A' for Active; 'I' for Inactive)
REMARK    1  A    between atoms: C1_2  and  C2_3 
REMARK       I    between atoms: C1_2  and  N3_18 
REMARK    2  A    between atoms: C2_3  and  C3_4 
REMARK    3  A    between atoms: C3_4  and  C4_5 
REMARK    4  A    between atoms: N3_18  and  C13_19 
REMARK    5  A    between atoms: C13_19  and  C14_20 
ROOT
HETATM    1  C4  UNK   900     113.070 -55.279-256.542  1.00  0.00     0.187 C 
HETATM    2  N1  UNK   900     112.050 -54.096-256.383  1.00  0.00    -0.227 NA
HETATM    3  C5  UNK   900     110.723 -54.089-256.027  1.00  0.00     0.277 C 
HETATM    4  O2  UNK   900     110.249 -52.967-255.670  1.00  0.00    -0.266 OA
HETATM    5  C6  UNK   900     109.803 -55.233-256.015  1.00  0.00     0.075 C 
HETATM    6  C7  UNK   900     108.543 -54.898-255.594  1.00  0.00     0.006 C 
HETATM    7  C8  UNK   900     107.654 -55.962-255.482  1.00  0.00     0.000 C 
HETATM    8  C9  UNK   900     108.055 -57.272-255.715  1.00  0.00     0.002 C 
HETATM    9  C10 UNK   900     109.138 -57.465-256.566  1.00  0.00     0.019 C 
HETATM   10  C11 UNK   900     109.984 -56.407-256.737  1.00  0.00     0.089 C 
HETATM   11  N2  UNK   900     111.010 -56.608-257.719  1.00  0.00    -0.210 NA
HETATM   12  C12 UNK   900     112.241 -55.980-257.730  1.00  0.00     0.278 C 
HETATM   13  O3  UNK   900     113.098 -56.377-258.574  1.00  0.00    -0.268 OA
ENDROOT
BRANCH   1  14
HETATM   14  C3  UNK   900     112.399 -56.194-255.352  1.00  0.00     0.044 C 
BRANCH  14  15
HETATM   15  C2  UNK   900     113.485 -56.718-254.508  1.00  0.00     0.092 C 
BRANCH  15  16
HETATM   16  C1  UNK   900     114.286 -57.825-255.117  1.00  0.00     0.252 C 
HETATM   17  O1  UNK   900     113.824 -58.523-255.771  1.00  0.00    -0.271 OA
HETATM   18  N3  UNK   900     115.698 -57.679-255.348  1.00  0.00    -0.231 NA
BRANCH  18  19
HETATM   19  C13 UNK   900     116.241 -57.527-256.687  1.00  0.00     0.180 C 
BRANCH  19  20
HETATM   20  C14 UNK   900     117.614 -58.032-256.825  1.00  0.00     0.102 C 
HETATM   21  C15 UNK   900     118.103 -59.002-255.957  1.00  0.00     0.024 C 
HETATM   22  C16 UNK   900     119.474 -59.075-256.160  1.00  0.00     0.029 C 
HETATM   23  C17 UNK   900     119.693 -58.337-257.305  1.00  0.00     0.122 C 
HETATM   24  O4  UNK   900     118.587 -57.730-257.633  1.00  0.00    -0.307 OA
ENDBRANCH  19  20
ENDBRANCH  18  19
ENDBRANCH  15  16
ENDBRANCH  14  15
ENDBRANCH   1  14
TORSDOF 5
ENDMDL
MODEL 7
REMARK VINA RESULT:      -4.4     29.552     31.675
REMARK  5 active torsions:
REMARK  status: ('A' for Active; 'I' for Inactive)
REMARK    1  A    between atoms: C1_2  and  C2_3 
REMARK       I    between atoms: C1_2  and  N3_18 
REMARK    2  A    between atoms: C2_3  and  C3_4 
REMARK    3  A    between atoms: C3_4  and  C4_5 
REMARK    4  A    between atoms: N3_18  and  C13_19 
REMARK    5  A    between atoms: C13_19  and  C14_20 
ROOT
HETATM    1  C4  UNK   900      92.872 -77.922-248.604  1.00  0.00     0.187 C 
HETATM    2  N1  UNK   900      93.377 -77.154-249.877  1.00  0.00    -0.227 NA
HETATM    3  C5  UNK   900      93.146 -75.871-250.309  1.00  0.00     0.277 C 
HETATM    4  O2  UNK   900      93.941 -75.430-251.195  1.00  0.00    -0.266 OA
HETATM    5  C6  UNK   900      92.086 -74.962-249.858  1.00  0.00     0.075 C 
HETATM    6  C7  UNK   900      92.133 -73.739-250.475  1.00  0.00     0.006 C 
HETATM    7  C8  UNK   900      91.203 -72.809-250.021  1.00  0.00     0.000 C 
HETATM    8  C9  UNK   900      90.344 -73.096-248.967  1.00  0.00     0.002 C 
HETATM    9  C10 UNK   900      90.034 -74.433-248.744  1.00  0.00     0.019 C 
HETATM   10  C11 UNK   900      90.905 -75.360-249.240  1.00  0.00     0.089 C 
HETATM   11  N2  UNK   900      90.481 -76.723-249.099  1.00  0.00    -0.210 NA
HETATM   12  C12 UNK   900      91.321 -77.818-249.022  1.00  0.00     0.278 C 
HETATM   13  O3  UNK   900      90.803 -78.940-248.743  1.00  0.00    -0.268 OA
ENDROOT
BRANCH   1  14
HETATM   14  C3  UNK   900      92.842 -76.585-247.646  1.00  0.00     0.044 C 
BRANCH  14  15
HETATM   15  C2  UNK   900      94.224 -76.282-247.239  1.00  0.00     0.092 C 
BRANCH  15  16
HETATM   16  C1  UNK   900      94.855 -77.289-246.331  1.00  0.00     0.252 C 
HETATM   17  O1  UNK   900      94.299 -77.710-245.529  1.00  0.00    -0.271 OA
HETATM   18  N3  UNK   900      95.918 -78.141-246.792  1.00  0.00    -0.231 NA
BRANCH  18  19
HETATM   19  C13 UNK   900      95.713 -79.559-247.031  1.00  0.00     0.180 C 
BRANCH  19  20
HETATM   20  C14 UNK   900      96.445 -80.424-246.096  1.00  0.00     0.102 C 
HETATM   21  C15 UNK   900      97.626 -79.989-245.503  1.00  0.00     0.024 C 
HETATM   22  C16 UNK   900      98.210 -81.095-244.902  1.00  0.00     0.029 C 
HETATM   23  C17 UNK   900      97.233 -82.068-244.947  1.00  0.00     0.122 C 
HETATM   24  O4  UNK   900      96.242 -81.638-245.675  1.00  0.00    -0.307 OA
ENDBRANCH  19  20
ENDBRANCH  18  19
ENDBRANCH  15  16
ENDBRANCH  14  15
ENDBRANCH   1  14
TORSDOF 5
ENDMDL
MODEL 8
REMARK VINA RESULT:      -4.4      8.619     11.016
REMARK  5 active torsions:
REMARK  status: ('A' for Active; 'I' for Inactive)
REMARK    1  A    between atoms: C1_2  and  C2_3 
REMARK       I    between atoms: C1_2  and  N3_18 
REMARK    2  A    between atoms: C2_3  and  C3_4 
REMARK    3  A    between atoms: C3_4  and  C4_5 
REMARK    4  A    between atoms: N3_18  and  C13_19 
REMARK    5  A    between atoms: C13_19  and  C14_20 
ROOT
HETATM    1  C4  UNK   900      99.395 -70.340-280.203  1.00  0.00     0.187 C 
HETATM    2  N1  UNK   900      98.073 -69.493-280.182  1.00  0.00    -0.227 NA
HETATM    3  C5  UNK   900      97.843 -68.170-280.473  1.00  0.00     0.277 C 
HETATM    4  O2  UNK   900      96.634 -67.848-280.682  1.00  0.00    -0.266 OA
HETATM    5  C6  UNK   900      98.841 -67.098-280.568  1.00  0.00     0.075 C 
HETATM    6  C7  UNK   900      98.290 -65.885-280.890  1.00  0.00     0.006 C 
HETATM    7  C8  UNK   900      99.203 -64.851-281.077  1.00  0.00     0.000 C 
HETATM    8  C9  UNK   900     100.573 -65.070-281.009  1.00  0.00     0.002 C 
HETATM    9  C10 UNK   900     101.010 -66.140-280.236  1.00  0.00     0.019 C 
HETATM   10  C11 UNK   900     100.105 -67.133-279.989  1.00  0.00     0.089 C 
HETATM   11  N2  UNK   900     100.557 -68.150-279.084  1.00  0.00    -0.210 NA
HETATM   12  C12 UNK   900     100.108 -69.457-279.062  1.00  0.00     0.278 C 
HETATM   13  O3  UNK   900     100.714 -70.276-278.308  1.00  0.00    -0.268 OA
ENDROOT
BRANCH   1  14
HETATM   14  C3  UNK   900     100.066 -69.509-281.454  1.00  0.00     0.044 C 
BRANCH  14  15
HETATM   15  C2  UNK   900     100.872 -70.450-282.249  1.00  0.00     0.092 C 
BRANCH  15  16
HETATM   16  C1  UNK   900     102.266 -70.670-281.753  1.00  0.00     0.252 C 
HETATM   17  O1  UNK   900     102.883 -71.410-282.202  1.00  0.00    -0.271 OA
HETATM   18  N3  UNK   900     103.013 -69.606-281.140  1.00  0.00    -0.231 NA
BRANCH  18  19
HETATM   19  C13 UNK   900     104.130 -68.968-281.815  1.00  0.00     0.180 C 
BRANCH  19  20
HETATM   20  C14 UNK   900     103.870 -67.571-282.189  1.00  0.00     0.102 C 
HETATM   21  C15 UNK   900     103.064 -67.267-283.280  1.00  0.00     0.024 C 
HETATM   22  C16 UNK   900     103.224 -65.913-283.538  1.00  0.00     0.029 C 
HETATM   23  C17 UNK   900     103.910 -65.432-282.443  1.00  0.00     0.122 C 
HETATM   24  O4  UNK   900     104.286 -66.437-281.705  1.00  0.00    -0.307 OA
ENDBRANCH  19  20
ENDBRANCH  18  19
ENDBRANCH  15  16
ENDBRANCH  14  15
ENDBRANCH   1  14
TORSDOF 5
ENDMDL
MODEL 9
REMARK VINA RESULT:      -4.3      7.752     10.031
REMARK  5 active torsions:
REMARK  status: ('A' for Active; 'I' for Inactive)
REMARK    1  A    between atoms: C1_2  and  C2_3 
REMARK       I    between atoms: C1_2  and  N3_18 
REMARK    2  A    between atoms: C2_3  and  C3_4 
REMARK    3  A    between atoms: C3_4  and  C4_5 
REMARK    4  A    between atoms: N3_18  and  C13_19 
REMARK    5  A    between atoms: C13_19  and  C14_20 
ROOT
HETATM    1  C4  UNK   900      98.729 -70.065-279.650  1.00  0.00     0.187 C 
HETATM    2  N1  UNK   900      97.761 -68.829-279.611  1.00  0.00    -0.227 NA
HETATM    3  C5  UNK   900      97.921 -67.542-280.061  1.00  0.00     0.277 C 
HETATM    4  O2  UNK   900      96.858 -66.859-280.185  1.00  0.00    -0.266 OA
HETATM    5  C6  UNK   900      99.181 -66.877-280.413  1.00  0.00     0.075 C 
HETATM    6  C7  UNK   900      99.002 -65.588-280.845  1.00  0.00     0.006 C 
HETATM    7  C8  UNK   900     100.156 -64.940-281.273  1.00  0.00     0.000 C 
HETATM    8  C9  UNK   900     101.382 -65.594-281.319  1.00  0.00     0.002 C 
HETATM    9  C10 UNK   900     101.566 -66.665-280.452  1.00  0.00     0.019 C 
HETATM   10  C11 UNK   900     100.439 -67.271-279.972  1.00  0.00     0.089 C 
HETATM   11  N2  UNK   900     100.674 -68.284-278.984  1.00  0.00    -0.210 NA
HETATM   12  C12 UNK   900      99.844 -69.359-278.728  1.00  0.00     0.278 C 
HETATM   13  O3  UNK   900     100.263 -70.252-277.933  1.00  0.00    -0.268 OA
ENDROOT
BRANCH   1  14
HETATM   14  C3  UNK   900      99.437 -69.634-281.070  1.00  0.00     0.044 C 
BRANCH  14  15
HETATM   15  C2  UNK   900      99.729 -70.861-281.828  1.00  0.00     0.092 C 
BRANCH  15  16
HETATM   16  C1  UNK   900     101.182 -71.165-282.013  1.00  0.00     0.252 C 
HETATM   17  O1  UNK   900     101.680 -70.874-282.905  1.00  0.00    -0.271 OA
HETATM   18  N3  UNK   900     102.065 -71.285-280.884  1.00  0.00    -0.231 NA
BRANCH  18  19
HETATM   19  C13 UNK   900     103.060 -70.271-280.581  1.00  0.00     0.180 C 
BRANCH  19  20
HETATM   20  C14 UNK   900     104.191 -70.775-279.790  1.00  0.00     0.102 C 
HETATM   21  C15 UNK   900     105.021 -71.771-280.293  1.00  0.00     0.024 C 
HETATM   22  C16 UNK   900     105.806 -72.216-279.240  1.00  0.00     0.029 C 
HETATM   23  C17 UNK   900     105.588 -71.298-278.235  1.00  0.00     0.122 C 
HETATM   24  O4  UNK   900     104.622 -70.500-278.594  1.00  0.00    -0.307 OA
ENDBRANCH  19  20
ENDBRANCH  18  19
ENDBRANCH  15  16
ENDBRANCH  14  15
ENDBRANCH   1  14
TORSDOF 5
ENDMDL
