MODEL 1
REMARK VINA RESULT:      -5.9      0.000      0.000
REMARK  7 active torsions:
REMARK  status: ('A' for Active; 'I' for Inactive)
REMARK    1  A    between atoms: C2_2  and  C3_3 
REMARK    2  A    between atoms: C2_2  and  C8_11 
REMARK       I    between atoms: C3_3  and  N1_5 
REMARK    3  A    between atoms: N1_5  and  C5_7 
REMARK    4  A    between atoms: C5_7  and  C6_8 
REMARK    5  A    between atoms: C6_8  and  C7_9 
REMARK    6  A    between atoms: C15_18  and  N3_19 
REMARK       I    between atoms: N3_19  and  C16_20 
REMARK       I    between atoms: C16_20  and  N4_22 
REMARK    7  A    between atoms: N4_22  and  C17_23 
ROOT
HETATM    1  C8  UNK   900     112.882 -76.627-242.412  1.00  0.00     0.039 C 
HETATM    2  C9  UNK   900     113.670 -75.429-243.139  1.00  0.00     0.003 C 
HETATM    3  C10 UNK   900     112.774 -74.661-244.043  1.00  0.00     0.000 C 
HETATM    4  C11 UNK   900     112.078 -73.853-242.984  1.00  0.00     0.003 C 
HETATM    5  C12 UNK   900     112.933 -73.519-241.821  1.00  0.00     0.000 C 
HETATM    6  C13 UNK   900     111.371 -72.636-243.439  1.00  0.00     0.002 C 
HETATM    7  C14 UNK   900     109.967 -73.025-243.734  1.00  0.00     0.025 C 
HETATM    8  C15 UNK   900     109.161 -73.158-242.322  1.00  0.00     0.108 C 
HETATM    9  C23 UNK   900     110.382 -73.892-241.410  1.00  0.00     0.025 C 
HETATM   10  C24 UNK   900     109.348 -74.996-240.855  1.00  0.00     0.002 C 
HETATM   11  C25 UNK   900     110.952 -74.928-242.597  1.00  0.00     0.032 C 
HETATM   12  C26 UNK   900     111.858 -75.721-241.416  1.00  0.00     0.152 C 
HETATM   13  O3  UNK   900     110.881 -76.867-241.368  1.00  0.00    -0.224 OA
ENDROOT
BRANCH   8  14
HETATM   14  N3  UNK   900     109.587 -71.719-241.873  1.00  0.00    -0.219 NA
HETATM   15  C16 UNK   900     108.683 -70.675-241.981  1.00  0.00     0.364 C 
HETATM   16  O2  UNK   900     107.458 -70.921-241.776  1.00  0.00    -0.243 OA
HETATM   17  N4  UNK   900     108.878 -69.350-242.443  1.00  0.00    -0.191 NA
BRANCH  17  18
HETATM   18  C17 UNK   900     107.789 -68.646-243.067  1.00  0.00     0.088 C 
HETATM   19  C18 UNK   900     107.364 -67.450-242.492  1.00  0.00     0.019 C 
HETATM   20  C19 UNK   900     106.723 -66.463-243.205  1.00  0.00     0.004 C 
HETATM   21  C20 UNK   900     106.326 -66.706-244.497  1.00  0.00     0.030 C 
HETATM   22  C21 UNK   900     106.486 -67.994-244.993  1.00  0.00     0.142 C 
HETATM   23  F1  UNK   900     105.602 -68.515-245.895  1.00  0.00    -0.204 F 
HETATM   24  C22 UNK   900     107.456 -68.790-244.391  1.00  0.00     0.049 C 
ENDBRANCH  17  18
ENDBRANCH   8  14
BRANCH   1  25
HETATM   25  C2  UNK   900     111.807 -76.931-243.673  1.00  0.00     0.076 C 
HETATM   26  C1  UNK   900     111.144 -78.189-242.878  1.00  0.00     0.009 C 
BRANCH  25  27
HETATM   27  C3  UNK   900     112.810 -77.887-244.450  1.00  0.00     0.213 C 
HETATM   28  O1  UNK   900     113.247 -78.923-243.953  1.00  0.00    -0.279 OA
HETATM   29  N1  UNK   900     112.628 -77.989-245.876  1.00  0.00    -0.222 NA
HETATM   30  C4  UNK   900     113.346 -76.918-246.577  1.00  0.00     0.097 C 
BRANCH  29  31
HETATM   31  C5  UNK   900     112.847 -79.269-246.561  1.00  0.00     0.086 C 
BRANCH  31  32
HETATM   32  C6  UNK   900     114.176 -79.396-247.191  1.00  0.00     0.067 C 
BRANCH  32  33
HETATM   33  C7  UNK   900     114.678 -80.765-246.983  1.00  0.00     0.097 C 
HETATM   34  N2  UNK   900     114.543 -81.874-246.727  1.00  0.00    -0.151 N 
ENDBRANCH  32  33
ENDBRANCH  31  32
ENDBRANCH  29  31
ENDBRANCH  25  27
ENDBRANCH   1  25
TORSDOF 7
ENDMDL
MODEL 2
REMARK VINA RESULT:      -5.9     33.186     35.188
REMARK  7 active torsions:
REMARK  status: ('A' for Active; 'I' for Inactive)
REMARK    1  A    between atoms: C2_2  and  C3_3 
REMARK    2  A    between atoms: C2_2  and  C8_11 
REMARK       I    between atoms: C3_3  and  N1_5 
REMARK    3  A    between atoms: N1_5  and  C5_7 
REMARK    4  A    between atoms: C5_7  and  C6_8 
REMARK    5  A    between atoms: C6_8  and  C7_9 
REMARK    6  A    between atoms: C15_18  and  N3_19 
REMARK       I    between atoms: N3_19  and  C16_20 
REMARK       I    between atoms: C16_20  and  N4_22 
REMARK    7  A    between atoms: N4_22  and  C17_23 
ROOT
HETATM    1  C8  UNK   900     108.187 -74.712-276.597  1.00  0.00     0.039 C 
HETATM    2  C9  UNK   900     108.516 -73.667-277.772  1.00  0.00     0.003 C 
HETATM    3  C10 UNK   900     107.477 -73.701-278.835  1.00  0.00     0.000 C 
HETATM    4  C11 UNK   900     106.435 -72.895-278.112  1.00  0.00     0.003 C 
HETATM    5  C12 UNK   900     106.993 -71.850-277.220  1.00  0.00     0.000 C 
HETATM    6  C13 UNK   900     105.359 -72.309-278.941  1.00  0.00     0.002 C 
HETATM    7  C14 UNK   900     104.243 -73.290-278.972  1.00  0.00     0.025 C 
HETATM    8  C15 UNK   900     103.429 -73.190-277.561  1.00  0.00     0.108 C 
HETATM    9  C23 UNK   900     104.753 -72.998-276.526  1.00  0.00     0.025 C 
HETATM   10  C24 UNK   900     104.177 -74.124-275.528  1.00  0.00     0.002 C 
HETATM   11  C25 UNK   900     105.778 -74.093-277.274  1.00  0.00     0.032 C 
HETATM   12  C26 UNK   900     106.812 -73.974-275.947  1.00  0.00     0.152 C 
HETATM   13  O3  UNK   900     106.347 -75.301-275.405  1.00  0.00    -0.224 OA
ENDROOT
BRANCH   8  14
HETATM   14  N3  UNK   900     103.231 -71.643-277.716  1.00  0.00    -0.219 NA
HETATM   15  C16 UNK   900     101.956 -71.135-277.906  1.00  0.00     0.364 C 
HETATM   16  O2  UNK   900     100.990 -71.707-277.322  1.00  0.00    -0.243 OA
HETATM   17  N4  UNK   900     101.505 -70.129-278.796  1.00  0.00    -0.191 NA
BRANCH  17  18
HETATM   18  C17 UNK   900     100.159 -70.177-279.303  1.00  0.00     0.088 C 
HETATM   19  C18 UNK   900      99.213 -69.323-278.740  1.00  0.00     0.019 C 
HETATM   20  C19 UNK   900      98.085 -68.910-279.411  1.00  0.00     0.004 C 
HETATM   21  C20 UNK   900      97.769 -69.474-280.622  1.00  0.00     0.030 C 
HETATM   22  C21 UNK   900      98.548 -70.536-281.066  1.00  0.00     0.142 C 
HETATM   23  F1  UNK   900      98.004 -71.544-281.810  1.00  0.00    -0.204 F 
HETATM   24  C22 UNK   900      99.841 -70.629-280.560  1.00  0.00     0.049 C 
ENDBRANCH  17  18
ENDBRANCH   8  14
BRANCH   1  25
HETATM   25  C2  UNK   900     107.424 -75.854-277.575  1.00  0.00     0.076 C 
HETATM   26  C1  UNK   900     107.477 -76.978-276.398  1.00  0.00     0.009 C 
BRANCH  25  27
HETATM   27  C3  UNK   900     108.780 -76.384-278.210  1.00  0.00     0.213 C 
HETATM   28  O1  UNK   900     109.804 -76.531-277.544  1.00  0.00    -0.279 OA
HETATM   29  N1  UNK   900     108.660 -77.358-279.264  1.00  0.00    -0.222 NA
HETATM   30  C4  UNK   900     108.483 -76.707-280.568  1.00  0.00     0.097 C 
BRANCH  29  31
HETATM   31  C5  UNK   900     109.636 -78.450-279.379  1.00  0.00     0.086 C 
BRANCH  31  32
HETATM   32  C6  UNK   900     109.130 -79.760-278.927  1.00  0.00     0.067 C 
BRANCH  32  33
HETATM   33  C7  UNK   900     109.629 -80.024-277.566  1.00  0.00     0.097 C 
HETATM   34  N2  UNK   900     110.462 -80.122-276.786  1.00  0.00    -0.151 N 
ENDBRANCH  32  33
ENDBRANCH  31  32
ENDBRANCH  29  31
ENDBRANCH  25  27
ENDBRANCH   1  25
TORSDOF 7
ENDMDL
MODEL 3
REMARK VINA RESULT:      -5.9     14.579     18.134
REMARK  7 active torsions:
REMARK  status: ('A' for Active; 'I' for Inactive)
REMARK    1  A    between atoms: C2_2  and  C3_3 
REMARK    2  A    between atoms: C2_2  and  C8_11 
REMARK       I    between atoms: C3_3  and  N1_5 
REMARK    3  A    between atoms: N1_5  and  C5_7 
REMARK    4  A    between atoms: C5_7  and  C6_8 
REMARK    5  A    between atoms: C6_8  and  C7_9 
REMARK    6  A    between atoms: C15_18  and  N3_19 
REMARK       I    between atoms: N3_19  and  C16_20 
REMARK       I    between atoms: C16_20  and  N4_22 
REMARK    7  A    between atoms: N4_22  and  C17_23 
ROOT
HETATM    1  C8  UNK   900     118.846 -67.769-254.837  1.00  0.00     0.039 C 
HETATM    2  C9  UNK   900     117.496 -67.911-253.977  1.00  0.00     0.003 C 
HETATM    3  C10 UNK   900     116.291 -67.877-254.848  1.00  0.00     0.000 C 
HETATM    4  C11 UNK   900     116.378 -69.290-255.352  1.00  0.00     0.003 C 
HETATM    5  C12 UNK   900     116.936 -70.248-254.369  1.00  0.00     0.000 C 
HETATM    6  C13 UNK   900     115.147 -69.856-255.945  1.00  0.00     0.002 C 
HETATM    7  C14 UNK   900     115.193 -69.581-257.405  1.00  0.00     0.025 C 
HETATM    8  C15 UNK   900     116.210 -70.649-258.100  1.00  0.00     0.108 C 
HETATM    9  C23 UNK   900     117.405 -70.666-256.903  1.00  0.00     0.025 C 
HETATM   10  C24 UNK   900     118.563 -70.493-258.010  1.00  0.00     0.002 C 
HETATM   11  C25 UNK   900     117.398 -69.026-256.561  1.00  0.00     0.032 C 
HETATM   12  C26 UNK   900     118.806 -69.246-255.660  1.00  0.00     0.152 C 
HETATM   13  O3  UNK   900     119.658 -68.664-256.758  1.00  0.00    -0.224 OA
ENDROOT
BRANCH   8  14
HETATM   14  N3  UNK   900     115.456 -71.870-257.471  1.00  0.00    -0.219 NA
HETATM   15  C16 UNK   900     115.605 -73.127-258.033  1.00  0.00     0.364 C 
HETATM   16  O2  UNK   900     116.729 -73.434-258.525  1.00  0.00    -0.243 OA
HETATM   17  N4  UNK   900     114.631 -74.122-258.297  1.00  0.00    -0.191 NA
BRANCH  17  18
HETATM   18  C17 UNK   900     114.820 -75.029-259.399  1.00  0.00     0.088 C 
HETATM   19  C18 UNK   900     114.903 -76.392-259.122  1.00  0.00     0.019 C 
HETATM   20  C19 UNK   900     114.590 -77.363-260.046  1.00  0.00     0.004 C 
HETATM   21  C20 UNK   900     114.342 -77.008-261.348  1.00  0.00     0.030 C 
HETATM   22  C21 UNK   900     114.537 -75.680-261.707  1.00  0.00     0.142 C 
HETATM   23  F1  UNK   900     114.969 -75.346-262.959  1.00  0.00    -0.204 F 
HETATM   24  C22 UNK   900     114.465 -74.731-260.692  1.00  0.00     0.049 C 
ENDBRANCH  17  18
ENDBRANCH   8  14
BRANCH   1  25
HETATM   25  C2  UNK   900     118.192 -66.790-256.043  1.00  0.00     0.076 C 
HETATM   26  C1  UNK   900     119.672 -66.389-256.595  1.00  0.00     0.009 C 
BRANCH  25  27
HETATM   27  C3  UNK   900     118.133 -65.497-255.121  1.00  0.00     0.213 C 
HETATM   28  O1  UNK   900     119.080 -65.148-254.419  1.00  0.00    -0.279 OA
HETATM   29  N1  UNK   900     117.373 -64.382-255.623  1.00  0.00    -0.222 NA
HETATM   30  C4  UNK   900     115.953 -64.509-255.273  1.00  0.00     0.097 C 
BRANCH  29  31
HETATM   31  C5  UNK   900     117.827 -63.006-255.379  1.00  0.00     0.086 C 
BRANCH  31  32
HETATM   32  C6  UNK   900     116.735 -62.016-255.308  1.00  0.00     0.067 C 
BRANCH  32  33
HETATM   33  C7  UNK   900     117.280 -60.677-255.596  1.00  0.00     0.097 C 
HETATM   34  N2  UNK   900     117.239 -59.643-256.087  1.00  0.00    -0.151 N 
ENDBRANCH  32  33
ENDBRANCH  31  32
ENDBRANCH  29  31
ENDBRANCH  25  27
ENDBRANCH   1  25
TORSDOF 7
ENDMDL
MODEL 4
REMARK VINA RESULT:      -5.8     14.861     17.812
REMARK  7 active torsions:
REMARK  status: ('A' for Active; 'I' for Inactive)
REMARK    1  A    between atoms: C2_2  and  C3_3 
REMARK    2  A    between atoms: C2_2  and  C8_11 
REMARK       I    between atoms: C3_3  and  N1_5 
REMARK    3  A    between atoms: N1_5  and  C5_7 
REMARK    4  A    between atoms: C5_7  and  C6_8 
REMARK    5  A    between atoms: C6_8  and  C7_9 
REMARK    6  A    between atoms: C15_18  and  N3_19 
REMARK       I    between atoms: N3_19  and  C16_20 
REMARK       I    between atoms: C16_20  and  N4_22 
REMARK    7  A    between atoms: N4_22  and  C17_23 
ROOT
HETATM    1  C8  UNK   900     117.005 -67.470-253.610  1.00  0.00     0.039 C 
HETATM    2  C9  UNK   900     115.923 -66.816-254.602  1.00  0.00     0.003 C 
HETATM    3  C10 UNK   900     116.223 -67.138-256.022  1.00  0.00     0.000 C 
HETATM    4  C11 UNK   900     115.693 -68.544-256.017  1.00  0.00     0.003 C 
HETATM    5  C12 UNK   900     114.534 -68.749-255.116  1.00  0.00     0.000 C 
HETATM    6  C13 UNK   900     115.400 -69.145-257.337  1.00  0.00     0.002 C 
HETATM    7  C14 UNK   900     116.627 -69.858-257.778  1.00  0.00     0.025 C 
HETATM    8  C15 UNK   900     116.718 -71.276-256.976  1.00  0.00     0.108 C 
HETATM    9  C23 UNK   900     116.194 -70.733-255.461  1.00  0.00     0.025 C 
HETATM   10  C24 UNK   900     117.418 -71.488-254.733  1.00  0.00     0.002 C 
HETATM   11  C25 UNK   900     117.009 -69.270-255.456  1.00  0.00     0.032 C 
HETATM   12  C26 UNK   900     116.624 -69.104-253.823  1.00  0.00     0.152 C 
HETATM   13  O3  UNK   900     118.019 -69.491-253.406  1.00  0.00    -0.224 OA
ENDROOT
BRANCH   8  14
HETATM   14  N3  UNK   900     115.270 -71.685-257.413  1.00  0.00    -0.219 NA
HETATM   15  C16 UNK   900     115.101 -72.662-258.380  1.00  0.00     0.364 C 
HETATM   16  O2  UNK   900     115.923 -73.623-258.411  1.00  0.00    -0.243 OA
HETATM   17  N4  UNK   900     114.214 -72.700-259.485  1.00  0.00    -0.191 NA
BRANCH  17  18
HETATM   18  C17 UNK   900     114.589 -73.414-260.676  1.00  0.00     0.088 C 
HETATM   19  C18 UNK   900     115.687 -72.955-261.400  1.00  0.00     0.019 C 
HETATM   20  C19 UNK   900     116.436 -73.768-262.219  1.00  0.00     0.004 C 
HETATM   21  C20 UNK   900     116.011 -75.047-262.482  1.00  0.00     0.030 C 
HETATM   22  C21 UNK   900     114.765 -75.428-261.997  1.00  0.00     0.142 C 
HETATM   23  F1  UNK   900     113.984 -76.311-262.687  1.00  0.00    -0.204 F 
HETATM   24  C22 UNK   900     114.272 -74.732-260.899  1.00  0.00     0.049 C 
ENDBRANCH  17  18
ENDBRANCH   8  14
BRANCH   1  25
HETATM   25  C2  UNK   900     118.309 -67.373-254.673  1.00  0.00     0.076 C 
HETATM   26  C1  UNK   900     119.380 -67.611-253.469  1.00  0.00     0.009 C 
BRANCH  25  27
HETATM   27  C3  UNK   900     118.443 -65.795-254.547  1.00  0.00     0.213 C 
HETATM   28  O1  UNK   900     118.271 -65.205-253.482  1.00  0.00    -0.279 OA
HETATM   29  N1  UNK   900     119.436 -65.164-255.377  1.00  0.00    -0.222 NA
HETATM   30  C4  UNK   900     118.897 -64.859-256.707  1.00  0.00     0.097 C 
BRANCH  29  31
HETATM   31  C5  UNK   900     120.203 -64.017-254.873  1.00  0.00     0.086 C 
BRANCH  31  32
HETATM   32  C6  UNK   900     119.944 -62.756-255.595  1.00  0.00     0.067 C 
BRANCH  32  33
HETATM   33  C7  UNK   900     121.230 -62.109-255.909  1.00  0.00     0.097 C 
HETATM   34  N2  UNK   900     122.077 -61.816-256.622  1.00  0.00    -0.151 N 
ENDBRANCH  32  33
ENDBRANCH  31  32
ENDBRANCH  29  31
ENDBRANCH  25  27
ENDBRANCH   1  25
TORSDOF 7
ENDMDL
MODEL 5
REMARK VINA RESULT:      -5.7     36.275     37.682
REMARK  7 active torsions:
REMARK  status: ('A' for Active; 'I' for Inactive)
REMARK    1  A    between atoms: C2_2  and  C3_3 
REMARK    2  A    between atoms: C2_2  and  C8_11 
REMARK       I    between atoms: C3_3  and  N1_5 
REMARK    3  A    between atoms: N1_5  and  C5_7 
REMARK    4  A    between atoms: C5_7  and  C6_8 
REMARK    5  A    between atoms: C6_8  and  C7_9 
REMARK    6  A    between atoms: C15_18  and  N3_19 
REMARK       I    between atoms: N3_19  and  C16_20 
REMARK       I    between atoms: C16_20  and  N4_22 
REMARK    7  A    between atoms: N4_22  and  C17_23 
ROOT
HETATM    1  C8  UNK   900      90.858 -82.887-273.645  1.00  0.00     0.039 C 
HETATM    2  C9  UNK   900      91.626 -81.765-272.789  1.00  0.00     0.003 C 
HETATM    3  C10 UNK   900      91.770 -80.500-273.557  1.00  0.00     0.000 C 
HETATM    4  C11 UNK   900      90.367 -79.998-273.366  1.00  0.00     0.003 C 
HETATM    5  C12 UNK   900      89.763 -80.375-272.065  1.00  0.00     0.000 C 
HETATM    6  C13 UNK   900      90.140 -78.557-273.612  1.00  0.00     0.002 C 
HETATM    7  C14 UNK   900      89.749 -78.410-275.039  1.00  0.00     0.025 C 
HETATM    8  C15 UNK   900      88.184 -78.844-275.192  1.00  0.00     0.108 C 
HETATM    9  C23 UNK   900      88.193 -80.170-274.141  1.00  0.00     0.025 C 
HETATM   10  C24 UNK   900      87.425 -81.078-275.228  1.00  0.00     0.002 C 
HETATM   11  C25 UNK   900      89.685 -80.791-274.582  1.00  0.00     0.032 C 
HETATM   12  C26 UNK   900      89.321 -82.186-273.706  1.00  0.00     0.152 C 
HETATM   13  O3  UNK   900      89.013 -82.954-274.965  1.00  0.00    -0.224 OA
ENDROOT
BRANCH   8  14
HETATM   14  N3  UNK   900      87.736 -77.856-274.062  1.00  0.00    -0.219 NA
HETATM   15  C16 UNK   900      87.605 -76.508-274.349  1.00  0.00     0.364 C 
HETATM   16  O2  UNK   900      87.186 -76.177-275.496  1.00  0.00    -0.243 OA
HETATM   17  N4  UNK   900      88.013 -75.377-273.597  1.00  0.00    -0.191 NA
BRANCH  17  18
HETATM   18  C17 UNK   900      88.373 -74.162-274.278  1.00  0.00     0.088 C 
HETATM   19  C18 UNK   900      87.475 -73.097-274.244  1.00  0.00     0.019 C 
HETATM   20  C19 UNK   900      87.864 -71.786-274.398  1.00  0.00     0.004 C 
HETATM   21  C20 UNK   900      89.154 -71.497-274.765  1.00  0.00     0.030 C 
HETATM   22  C21 UNK   900      89.991 -72.560-275.086  1.00  0.00     0.142 C 
HETATM   23  F1  UNK   900      90.962 -72.428-276.036  1.00  0.00    -0.204 F 
HETATM   24  C22 UNK   900      89.671 -73.803-274.548  1.00  0.00     0.049 C 
ENDBRANCH  17  18
ENDBRANCH   8  14
BRANCH   1  25
HETATM   25  C2  UNK   900      91.425 -82.388-275.152  1.00  0.00     0.076 C 
HETATM   26  C1  UNK   900      90.995 -83.799-275.843  1.00  0.00     0.009 C 
BRANCH  25  27
HETATM   27  C3  UNK   900      92.904 -82.907-274.895  1.00  0.00     0.213 C 
HETATM   28  O1  UNK   900      93.137 -84.004-274.392  1.00  0.00    -0.279 OA
HETATM   29  N1  UNK   900      93.900 -82.518-275.861  1.00  0.00    -0.222 NA
HETATM   30  C4  UNK   900      94.468 -81.205-275.533  1.00  0.00     0.097 C 
BRANCH  29  31
HETATM   31  C5  UNK   900      94.974 -83.448-276.233  1.00  0.00     0.086 C 
BRANCH  31  32
HETATM   32  C6  UNK   900      94.709 -84.209-277.471  1.00  0.00     0.067 C 
BRANCH  32  33
HETATM   33  C7  UNK   900      94.103 -83.309-278.468  1.00  0.00     0.097 C 
HETATM   34  N2  UNK   900      94.145 -82.634-279.392  1.00  0.00    -0.151 N 
ENDBRANCH  32  33
ENDBRANCH  31  32
ENDBRANCH  29  31
ENDBRANCH  25  27
ENDBRANCH   1  25
TORSDOF 7
ENDMDL
MODEL 6
REMARK VINA RESULT:      -5.7     28.192     31.042
REMARK  7 active torsions:
REMARK  status: ('A' for Active; 'I' for Inactive)
REMARK    1  A    between atoms: C2_2  and  C3_3 
REMARK    2  A    between atoms: C2_2  and  C8_11 
REMARK       I    between atoms: C3_3  and  N1_5 
REMARK    3  A    between atoms: N1_5  and  C5_7 
REMARK    4  A    between atoms: C5_7  and  C6_8 
REMARK    5  A    between atoms: C6_8  and  C7_9 
REMARK    6  A    between atoms: C15_18  and  N3_19 
REMARK       I    between atoms: N3_19  and  C16_20 
REMARK       I    between atoms: C16_20  and  N4_22 
REMARK    7  A    between atoms: N4_22  and  C17_23 
ROOT
HETATM    1  C8  UNK   900     122.088 -54.382-267.617  1.00  0.00     0.039 C 
HETATM    2  C9  UNK   900     123.386 -54.271-266.676  1.00  0.00     0.003 C 
HETATM    3  C10 UNK   900     123.126 -54.830-265.323  1.00  0.00     0.000 C 
HETATM    4  C11 UNK   900     123.243 -56.283-265.688  1.00  0.00     0.003 C 
HETATM    5  C12 UNK   900     124.223 -56.557-266.766  1.00  0.00     0.000 C 
HETATM    6  C13 UNK   900     123.465 -57.228-264.572  1.00  0.00     0.002 C 
HETATM    7  C14 UNK   900     122.129 -57.693-264.116  1.00  0.00     0.025 C 
HETATM    8  C15 UNK   900     121.584 -58.814-265.168  1.00  0.00     0.108 C 
HETATM    9  C23 UNK   900     122.112 -58.083-266.600  1.00  0.00     0.025 C 
HETATM   10  C24 UNK   900     120.672 -58.314-267.286  1.00  0.00     0.002 C 
HETATM   11  C25 UNK   900     121.737 -56.502-266.193  1.00  0.00     0.032 C 
HETATM   12  C26 UNK   900     122.018 -56.062-267.796  1.00  0.00     0.152 C 
HETATM   13  O3  UNK   900     120.541 -55.977-268.082  1.00  0.00    -0.224 OA
ENDROOT
BRANCH   8  14
HETATM   14  N3  UNK   900     122.892 -59.665-265.032  1.00  0.00    -0.219 NA
HETATM   15  C16 UNK   900     122.971 -60.642-264.053  1.00  0.00     0.364 C 
HETATM   16  O2  UNK   900     121.922 -61.289-263.768  1.00  0.00    -0.243 OA
HETATM   17  N4  UNK   900     124.036 -60.960-263.174  1.00  0.00    -0.191 NA
BRANCH  17  18
HETATM   18  C17 UNK   900     123.747 -61.513-261.877  1.00  0.00     0.088 C 
HETATM   19  C18 UNK   900     123.951 -62.878-261.684  1.00  0.00     0.019 C 
HETATM   20  C19 UNK   900     124.195 -63.431-260.448  1.00  0.00     0.004 C 
HETATM   21  C20 UNK   900     124.076 -62.656-259.321  1.00  0.00     0.030 C 
HETATM   22  C21 UNK   900     123.591 -61.362-259.472  1.00  0.00     0.142 C 
HETATM   23  F1  UNK   900     122.834 -60.777-258.497  1.00  0.00    -0.204 F 
HETATM   24  C22 UNK   900     123.741 -60.770-260.722  1.00  0.00     0.049 C 
ENDBRANCH  17  18
ENDBRANCH   8  14
BRANCH   1  25
HETATM   25  C2  UNK   900     120.953 -54.211-266.383  1.00  0.00     0.076 C 
HETATM   26  C1  UNK   900     119.785 -53.795-267.440  1.00  0.00     0.009 C 
BRANCH  25  27
HETATM   27  C3  UNK   900     121.313 -52.689-266.107  1.00  0.00     0.213 C 
HETATM   28  O1  UNK   900     121.525 -51.889-267.016  1.00  0.00    -0.279 OA
HETATM   29  N1  UNK   900     120.688 -52.076-264.963  1.00  0.00    -0.222 NA
HETATM   30  C4  UNK   900     121.464 -52.322-263.742  1.00  0.00     0.097 C 
BRANCH  29  31
HETATM   31  C5  UNK   900     120.268 -50.669-265.013  1.00  0.00     0.086 C 
BRANCH  31  32
HETATM   32  C6  UNK   900     118.805 -50.479-265.066  1.00  0.00     0.067 C 
BRANCH  32  33
HETATM   33  C7  UNK   900     118.410 -50.171-266.452  1.00  0.00     0.097 C 
HETATM   34  N2  UNK   900     118.368 -50.396-267.575  1.00  0.00    -0.151 N 
ENDBRANCH  32  33
ENDBRANCH  31  32
ENDBRANCH  29  31
ENDBRANCH  25  27
ENDBRANCH   1  25
TORSDOF 7
ENDMDL
MODEL 7
REMARK VINA RESULT:      -5.7     36.756     39.655
REMARK  7 active torsions:
REMARK  status: ('A' for Active; 'I' for Inactive)
REMARK    1  A    between atoms: C2_2  and  C3_3 
REMARK    2  A    between atoms: C2_2  and  C8_11 
REMARK       I    between atoms: C3_3  and  N1_5 
REMARK    3  A    between atoms: N1_5  and  C5_7 
REMARK    4  A    between atoms: C5_7  and  C6_8 
REMARK    5  A    between atoms: C6_8  and  C7_9 
REMARK    6  A    between atoms: C15_18  and  N3_19 
REMARK       I    between atoms: N3_19  and  C16_20 
REMARK       I    between atoms: C16_20  and  N4_22 
REMARK    7  A    between atoms: N4_22  and  C17_23 
ROOT
HETATM    1  C8  UNK   900      98.357 -66.920-282.652  1.00  0.00     0.039 C 
HETATM    2  C9  UNK   900      98.244 -66.185-281.228  1.00  0.00     0.003 C 
HETATM    3  C10 UNK   900      97.835 -67.134-280.158  1.00  0.00     0.000 C 
HETATM    4  C11 UNK   900      99.173 -67.789-279.960  1.00  0.00     0.003 C 
HETATM    5  C12 UNK   900     100.326 -66.884-280.176  1.00  0.00     0.000 C 
HETATM    6  C13 UNK   900      99.363 -68.534-278.696  1.00  0.00     0.002 C 
HETATM    7  C14 UNK   900      98.972 -69.944-278.952  1.00  0.00     0.025 C 
HETATM    8  C15 UNK   900     100.187 -70.680-279.755  1.00  0.00     0.108 C 
HETATM    9  C23 UNK   900     100.607 -69.406-280.786  1.00  0.00     0.025 C 
HETATM   10  C24 UNK   900     100.620 -70.397-282.056  1.00  0.00     0.002 C 
HETATM   11  C25 UNK   900      99.054 -68.880-281.130  1.00  0.00     0.032 C 
HETATM   12  C26 UNK   900      99.696 -67.907-282.350  1.00  0.00     0.152 C 
HETATM   13  O3  UNK   900      99.239 -68.865-283.419  1.00  0.00    -0.224 OA
ENDROOT
BRANCH   8  14
HETATM   14  N3  UNK   900     101.239 -70.253-278.676  1.00  0.00    -0.219 NA
HETATM   15  C16 UNK   900     102.215 -71.154-278.281  1.00  0.00     0.364 C 
HETATM   16  O2  UNK   900     102.683 -71.948-279.149  1.00  0.00    -0.243 OA
HETATM   17  N4  UNK   900     102.701 -71.454-276.984  1.00  0.00    -0.191 NA
BRANCH  17  18
HETATM   18  C17 UNK   900     103.199 -72.773-276.698  1.00  0.00     0.088 C 
HETATM   19  C18 UNK   900     104.476 -72.890-276.151  1.00  0.00     0.019 C 
HETATM   20  C19 UNK   900     104.869 -73.970-275.396  1.00  0.00     0.004 C 
HETATM   21  C20 UNK   900     104.050 -75.067-275.298  1.00  0.00     0.030 C 
HETATM   22  C21 UNK   900     102.896 -75.086-276.073  1.00  0.00     0.142 C 
HETATM   23  F1  UNK   900     102.403 -76.258-276.570  1.00  0.00    -0.204 F 
HETATM   24  C22 UNK   900     102.386 -73.857-276.480  1.00  0.00     0.049 C 
ENDBRANCH  17  18
ENDBRANCH   8  14
BRANCH   1  25
HETATM   25  C2  UNK   900      97.139 -68.050-282.372  1.00  0.00     0.076 C 
HETATM   26  C1  UNK   900      97.102 -68.481-283.943  1.00  0.00     0.009 C 
BRANCH  25  27
HETATM   27  C3  UNK   900      95.962 -67.004-282.581  1.00  0.00     0.213 C 
HETATM   28  O1  UNK   900      95.919 -66.248-283.549  1.00  0.00    -0.279 OA
HETATM   29  N1  UNK   900      94.653 -67.409-282.134  1.00  0.00    -0.222 NA
HETATM   30  C4  UNK   900      94.464 -67.107-280.710  1.00  0.00     0.097 C 
BRANCH  29  31
HETATM   31  C5  UNK   900      93.458 -67.016-282.892  1.00  0.00     0.086 C 
BRANCH  31  32
HETATM   32  C6  UNK   900      92.858 -68.110-283.681  1.00  0.00     0.067 C 
BRANCH  32  33
HETATM   33  C7  UNK   900      91.877 -68.824-282.844  1.00  0.00     0.097 C 
HETATM   34  N2  UNK   900      91.250 -68.955-281.895  1.00  0.00    -0.151 N 
ENDBRANCH  32  33
ENDBRANCH  31  32
ENDBRANCH  29  31
ENDBRANCH  25  27
ENDBRANCH   1  25
TORSDOF 7
ENDMDL
MODEL 8
REMARK VINA RESULT:      -5.6     16.271     19.902
REMARK  7 active torsions:
REMARK  status: ('A' for Active; 'I' for Inactive)
REMARK    1  A    between atoms: C2_2  and  C3_3 
REMARK    2  A    between atoms: C2_2  and  C8_11 
REMARK       I    between atoms: C3_3  and  N1_5 
REMARK    3  A    between atoms: N1_5  and  C5_7 
REMARK    4  A    between atoms: C5_7  and  C6_8 
REMARK    5  A    between atoms: C6_8  and  C7_9 
REMARK    6  A    between atoms: C15_18  and  N3_19 
REMARK       I    between atoms: N3_19  and  C16_20 
REMARK       I    between atoms: C16_20  and  N4_22 
REMARK    7  A    between atoms: N4_22  and  C17_23 
ROOT
HETATM    1  C8  UNK   900      98.139 -81.729-252.540  1.00  0.00     0.039 C 
HETATM    2  C9  UNK   900      99.466 -80.823-252.562  1.00  0.00     0.003 C 
HETATM    3  C10 UNK   900     100.687 -81.644-252.342  1.00  0.00     0.000 C 
HETATM    4  C11 UNK   900     100.788 -82.213-253.729  1.00  0.00     0.003 C 
HETATM    5  C12 UNK   900     100.317 -81.297-254.794  1.00  0.00     0.000 C 
HETATM    6  C13 UNK   900     102.098 -82.782-254.116  1.00  0.00     0.002 C 
HETATM    7  C14 UNK   900     102.068 -84.229-253.776  1.00  0.00     0.025 C 
HETATM    8  C15 UNK   900     101.211 -85.011-254.923  1.00  0.00     0.108 C 
HETATM    9  C23 UNK   900      99.987 -83.863-255.140  1.00  0.00     0.025 C 
HETATM   10  C24 UNK   900      98.855 -85.007-255.052  1.00  0.00     0.002 C 
HETATM   11  C25 UNK   900      99.785 -83.448-253.530  1.00  0.00     0.032 C 
HETATM   12  C26 UNK   900      98.384 -82.614-253.960  1.00  0.00     0.152 C 
HETATM   13  O3  UNK   900      97.506 -83.719-253.430  1.00  0.00    -0.224 OA
ENDROOT
BRANCH   8  14
HETATM   14  N3  UNK   900     102.085 -84.407-256.074  1.00  0.00    -0.219 NA
HETATM   15  C16 UNK   900     102.162 -85.067-257.289  1.00  0.00     0.364 C 
HETATM   16  O2  UNK   900     101.133 -85.673-257.708  1.00  0.00    -0.243 OA
HETATM   17  N4  UNK   900     103.286 -85.317-258.116  1.00  0.00    -0.191 NA
BRANCH  17  18
HETATM   18  C17 UNK   900     103.313 -86.492-258.946  1.00  0.00     0.088 C 
HETATM   19  C18 UNK   900     103.277 -86.322-260.329  1.00  0.00     0.019 C 
HETATM   20  C19 UNK   900     103.778 -87.251-261.210  1.00  0.00     0.004 C 
HETATM   21  C20 UNK   900     104.185 -88.478-260.747  1.00  0.00     0.030 C 
HETATM   22  C21 UNK   900     103.959 -88.773-259.408  1.00  0.00     0.142 C 
HETATM   23  F1  UNK   900     103.688 -90.049-259.005  1.00  0.00    -0.204 F 
HETATM   24  C22 UNK   900     103.827 -87.697-258.535  1.00  0.00     0.049 C 
ENDBRANCH  17  18
ENDBRANCH   8  14
BRANCH   1  25
HETATM   25  C2  UNK   900      98.710 -82.863-251.432  1.00  0.00     0.076 C 
HETATM   26  C1  UNK   900      97.198 -83.350-251.069  1.00  0.00     0.009 C 
BRANCH  25  27
HETATM   27  C3  UNK   900      98.724 -81.839-250.218  1.00  0.00     0.213 C 
HETATM   28  O1  UNK   900      97.920 -80.913-250.130  1.00  0.00    -0.279 OA
HETATM   29  N1  UNK   900      99.102 -82.368-248.932  1.00  0.00    -0.222 NA
HETATM   30  C4  UNK   900     100.560 -82.354-248.763  1.00  0.00     0.097 C 
BRANCH  29  31
HETATM   31  C5  UNK   900      98.451 -81.880-247.709  1.00  0.00     0.086 C 
BRANCH  31  32
HETATM   32  C6  UNK   900      99.345 -81.118-246.815  1.00  0.00     0.067 C 
BRANCH  32  33
HETATM   33  C7  UNK   900      99.236 -79.684-247.133  1.00  0.00     0.097 C 
HETATM   34  N2  UNK   900      99.339 -78.784-247.835  1.00  0.00    -0.151 N 
ENDBRANCH  32  33
ENDBRANCH  31  32
ENDBRANCH  29  31
ENDBRANCH  25  27
ENDBRANCH   1  25
TORSDOF 7
ENDMDL
MODEL 9
REMARK VINA RESULT:      -5.5     13.689     16.477
REMARK  7 active torsions:
REMARK  status: ('A' for Active; 'I' for Inactive)
REMARK    1  A    between atoms: C2_2  and  C3_3 
REMARK    2  A    between atoms: C2_2  and  C8_11 
REMARK       I    between atoms: C3_3  and  N1_5 
REMARK    3  A    between atoms: N1_5  and  C5_7 
REMARK    4  A    between atoms: C5_7  and  C6_8 
REMARK    5  A    between atoms: C6_8  and  C7_9 
REMARK    6  A    between atoms: C15_18  and  N3_19 
REMARK       I    between atoms: N3_19  and  C16_20 
REMARK       I    between atoms: C16_20  and  N4_22 
REMARK    7  A    between atoms: N4_22  and  C17_23 
ROOT
HETATM    1  C8  UNK   900     103.108 -84.798-251.188  1.00  0.00     0.039 C 
HETATM    2  C9  UNK   900     102.518 -84.920-252.677  1.00  0.00     0.003 C 
HETATM    3  C10 UNK   900     102.818 -83.705-253.481  1.00  0.00     0.000 C 
HETATM    4  C11 UNK   900     104.254 -84.027-253.787  1.00  0.00     0.003 C 
HETATM    5  C12 UNK   900     104.530 -85.476-253.931  1.00  0.00     0.000 C 
HETATM    6  C13 UNK   900     104.868 -83.296-254.917  1.00  0.00     0.002 C 
HETATM    7  C14 UNK   900     105.505 -82.075-254.359  1.00  0.00     0.025 C 
HETATM    8  C15 UNK   900     106.917 -82.502-253.660  1.00  0.00     0.108 C 
HETATM    9  C23 UNK   900     106.410 -83.953-252.951  1.00  0.00     0.025 C 
HETATM   10  C24 UNK   900     107.091 -83.542-251.549  1.00  0.00     0.002 C 
HETATM   11  C25 UNK   900     104.900 -83.436-252.444  1.00  0.00     0.032 C 
HETATM   12  C26 UNK   900     104.761 -84.851-251.538  1.00  0.00     0.152 C 
HETATM   13  O3  UNK   900     105.063 -84.119-250.257  1.00  0.00    -0.224 OA
ENDROOT
BRANCH   8  14
HETATM   14  N3  UNK   900     107.412 -83.223-254.960  1.00  0.00    -0.219 NA
HETATM   15  C16 UNK   900     108.376 -82.618-255.749  1.00  0.00     0.364 C 
HETATM   16  O2  UNK   900     109.280 -81.942-255.177  1.00  0.00    -0.243 OA
HETATM   17  N4  UNK   900     108.449 -82.498-257.159  1.00  0.00    -0.191 NA
BRANCH  17  18
HETATM   18  C17 UNK   900     109.111 -81.362-257.745  1.00  0.00     0.088 C 
HETATM   19  C18 UNK   900     110.496 -81.406-257.881  1.00  0.00     0.019 C 
HETATM   20  C19 UNK   900     111.179 -80.671-258.823  1.00  0.00     0.004 C 
HETATM   21  C20 UNK   900     110.514 -79.724-259.560  1.00  0.00     0.030 C 
HETATM   22  C21 UNK   900     109.187 -79.464-259.235  1.00  0.00     0.142 C 
HETATM   23  F1  UNK   900     108.661 -78.212-259.379  1.00  0.00    -0.204 F 
HETATM   24  C22 UNK   900     108.485 -80.471-258.582  1.00  0.00     0.049 C 
ENDBRANCH  17  18
ENDBRANCH   8  14
BRANCH   1  25
HETATM   25  C2  UNK   900     102.930 -83.127-251.056  1.00  0.00     0.076 C 
HETATM   26  C1  UNK   900     103.177 -83.172-249.447  1.00  0.00     0.009 C 
BRANCH  25  27
HETATM   27  C3  UNK   900     101.354 -83.195-250.866  1.00  0.00     0.213 C 
HETATM   28  O1  UNK   900     100.815 -84.037-250.151  1.00  0.00    -0.279 OA
HETATM   29  N1  UNK   900     100.651 -81.938-250.869  1.00  0.00    -0.222 NA
HETATM   30  C4  UNK   900     100.314 -81.524-252.237  1.00  0.00     0.097 C 
BRANCH  29  31
HETATM   31  C5  UNK   900      99.495 -81.733-249.986  1.00  0.00     0.086 C 
BRANCH  31  32
HETATM   32  C6  UNK   900      99.804 -80.986-248.752  1.00  0.00     0.067 C 
BRANCH  32  33
HETATM   33  C7  UNK   900      99.513 -81.841-247.587  1.00  0.00     0.097 C 
HETATM   34  N2  UNK   900      99.369 -82.856-247.077  1.00  0.00    -0.151 N 
ENDBRANCH  32  33
ENDBRANCH  31  32
ENDBRANCH  29  31
ENDBRANCH  25  27
ENDBRANCH   1  25
TORSDOF 7
ENDMDL
