MODEL 1
REMARK VINA RESULT:      -6.5      0.000      0.000
REMARK  1 active torsions:
REMARK  status: ('A' for Active; 'I' for Inactive)
REMARK       I    between atoms: N1_12  and  C11_13 
REMARK    1  A    between atoms: C11_13  and  C12_15 
ROOT
HETATM    1  C1  UNK   900     112.654 -75.466-280.376  1.00  0.00     0.181 C 
HETATM    2  O1  UNK   900     112.154 -75.164-280.269  1.00  0.00    -0.328 OA
HETATM    3  C2  UNK   900     110.890 -74.590-280.102  1.00  0.00     0.094 C 
HETATM    4  C3  UNK   900     110.447 -73.798-281.146  1.00  0.00     0.026 C 
HETATM    5  C4  UNK   900     109.194 -73.256-281.023  1.00  0.00     0.019 C 
HETATM    6  C5  UNK   900     108.473 -73.407-279.867  1.00  0.00     0.059 C 
HETATM    7  C6  UNK   900     108.987 -74.055-278.749  1.00  0.00     0.005 C 
HETATM    8  C7  UNK   900     110.134 -74.790-278.957  1.00  0.00     0.022 C 
HETATM    9  C8  UNK   900     108.057 -73.745-277.659  1.00  0.00     0.114 C 
HETATM   10  C9  UNK   900     108.342 -72.459-276.945  1.00  0.00     0.039 C 
HETATM   11  C10 UNK   900     107.458 -72.588-275.714  1.00  0.00     0.105 C 
HETATM   12  N1  UNK   900     107.237 -74.024-275.550  1.00  0.00    -0.319 N 
HETATM   13  C11 UNK   900     106.610 -74.536-274.374  1.00  0.00     0.233 C 
HETATM   14  O2  UNK   900     107.372 -74.674-273.368  1.00  0.00    -0.272 OA
HETATM   15  C16 UNK   900     108.018 -74.747-276.551  1.00  0.00     0.117 C 
HETATM   16  C17 UNK   900     106.765 -73.603-278.371  1.00  0.00     0.242 C 
HETATM   17  O3  UNK   900     105.649 -73.667-277.815  1.00  0.00    -0.272 OA
HETATM   18  N2  UNK   900     107.106 -73.053-279.638  1.00  0.00    -0.297 N 
HETATM   19  C18 UNK   900     106.229 -72.249-280.484  1.00  0.00     0.133 C 
ENDROOT
BRANCH  13  20
HETATM   20  C12 UNK   900     105.243 -74.009-274.070  1.00  0.00     0.071 C 
HETATM   21  C13 UNK   900     104.199 -74.778-274.869  1.00  0.00     0.009 C 
HETATM   22  C14 UNK   900     105.100 -72.558-274.452  1.00  0.00     0.009 C 
HETATM   23  C15 UNK   900     104.956 -74.175-272.583  1.00  0.00     0.009 C 
ENDBRANCH  13  20
TORSDOF 1
ENDMDL
MODEL 2
REMARK VINA RESULT:      -5.2     22.342     25.405
REMARK  1 active torsions:
REMARK  status: ('A' for Active; 'I' for Inactive)
REMARK       I    between atoms: N1_12  and  C11_13 
REMARK    1  A    between atoms: C11_13  and  C12_15 
ROOT
HETATM    1  C1  UNK   900     114.554 -66.215-251.482  1.00  0.00     0.181 C 
HETATM    2  O1  UNK   900     114.773 -66.496-251.958  1.00  0.00    -0.328 OA
HETATM    3  C2  UNK   900     115.156 -67.070-253.174  1.00  0.00     0.094 C 
HETATM    4  C3  UNK   900     114.502 -68.239-253.518  1.00  0.00     0.026 C 
HETATM    5  C4  UNK   900     114.832 -68.801-254.724  1.00  0.00     0.019 C 
HETATM    6  C5  UNK   900     115.844 -68.280-255.489  1.00  0.00     0.059 C 
HETATM    7  C6  UNK   900     116.622 -67.209-255.063  1.00  0.00     0.005 C 
HETATM    8  C7  UNK   900     116.139 -66.512-253.976  1.00  0.00     0.022 C 
HETATM    9  C8  UNK   900     117.752 -67.156-255.995  1.00  0.00     0.114 C 
HETATM   10  C9  UNK   900     118.906 -68.037-255.623  1.00  0.00     0.039 C 
HETATM   11  C10 UNK   900     119.997 -67.522-256.550  1.00  0.00     0.105 C 
HETATM   12  N1  UNK   900     119.595 -66.160-256.896  1.00  0.00    -0.319 N 
HETATM   13  C11 UNK   900     120.485 -65.292-257.597  1.00  0.00     0.233 C 
HETATM   14  O2  UNK   900     121.355 -64.711-256.879  1.00  0.00    -0.272 OA
HETATM   15  C16 UNK   900     118.388 -65.812-256.149  1.00  0.00     0.117 C 
HETATM   16  C17 UNK   900     117.159 -67.675-257.249  1.00  0.00     0.242 C 
HETATM   17  O3  UNK   900     117.653 -67.501-258.382  1.00  0.00    -0.272 OA
HETATM   18  N2  UNK   900     116.200 -68.638-256.827  1.00  0.00    -0.297 N 
HETATM   19  C18 UNK   900     115.735 -69.780-257.609  1.00  0.00     0.133 C 
ENDROOT
BRANCH  13  20
HETATM   20  C12 UNK   900     120.978 -65.780-258.923  1.00  0.00     0.071 C 
HETATM   21  C13 UNK   900     119.805 -65.960-259.879  1.00  0.00     0.009 C 
HETATM   22  C14 UNK   900     121.658 -67.121-258.813  1.00  0.00     0.009 C 
HETATM   23  C15 UNK   900     121.948 -64.763-259.508  1.00  0.00     0.009 C 
ENDBRANCH  13  20
TORSDOF 1
ENDMDL
MODEL 3
REMARK VINA RESULT:      -5.1     11.699     13.458
REMARK  1 active torsions:
REMARK  status: ('A' for Active; 'I' for Inactive)
REMARK       I    between atoms: N1_12  and  C11_13 
REMARK    1  A    between atoms: C11_13  and  C12_15 
ROOT
HETATM    1  C1  UNK   900     103.760 -84.470-276.414  1.00  0.00     0.181 C 
HETATM    2  O1  UNK   900     103.933 -84.650-275.874  1.00  0.00    -0.328 OA
HETATM    3  C2  UNK   900     104.432 -85.206-274.693  1.00  0.00     0.094 C 
HETATM    4  C3  UNK   900     103.676 -86.227-274.144  1.00  0.00     0.026 C 
HETATM    5  C4  UNK   900     104.165 -86.816-273.007  1.00  0.00     0.019 C 
HETATM    6  C5  UNK   900     105.289 -86.330-272.391  1.00  0.00     0.059 C 
HETATM    7  C6  UNK   900     105.952 -85.194-272.842  1.00  0.00     0.005 C 
HETATM    8  C7  UNK   900     105.601 -84.754-274.100  1.00  0.00     0.022 C 
HETATM    9  C8  UNK   900     106.888 -84.839-271.770  1.00  0.00     0.114 C 
HETATM   10  C9  UNK   900     106.303 -83.974-270.696  1.00  0.00     0.039 C 
HETATM   11  C10 UNK   900     107.551 -83.522-269.952  1.00  0.00     0.105 C 
HETATM   12  N1  UNK   900     108.642 -83.660-270.915  1.00  0.00    -0.319 N 
HETATM   13  C11 UNK   900     109.939 -83.138-270.629  1.00  0.00     0.233 C 
HETATM   14  O2  UNK   900     110.084 -81.896-270.844  1.00  0.00    -0.272 OA
HETATM   15  C16 UNK   900     108.093 -84.071-272.206  1.00  0.00     0.117 C 
HETATM   16  C17 UNK   900     107.211 -86.158-271.178  1.00  0.00     0.242 C 
HETATM   17  O3  UNK   900     108.210 -86.378-270.461  1.00  0.00    -0.272 OA
HETATM   18  N2  UNK   900     106.016 -86.919-271.309  1.00  0.00    -0.297 N 
HETATM   19  C18 UNK   900     105.617 -88.038-270.459  1.00  0.00     0.133 C 
ENDROOT
BRANCH  13  20
HETATM   20  C12 UNK   900     110.599 -83.650-269.387  1.00  0.00     0.071 C 
HETATM   21  C13 UNK   900     111.396 -84.909-269.703  1.00  0.00     0.009 C 
HETATM   22  C14 UNK   900     109.595 -84.027-268.328  1.00  0.00     0.009 C 
HETATM   23  C15 UNK   900     111.542 -82.586-268.839  1.00  0.00     0.009 C 
ENDBRANCH  13  20
TORSDOF 1
ENDMDL
MODEL 4
REMARK VINA RESULT:      -5.0     32.896     35.248
REMARK  1 active torsions:
REMARK  status: ('A' for Active; 'I' for Inactive)
REMARK       I    between atoms: N1_12  and  C11_13 
REMARK    1  A    between atoms: C11_13  and  C12_15 
ROOT
HETATM    1  C1  UNK   900     113.128 -78.725-245.832  1.00  0.00     0.181 C 
HETATM    2  O1  UNK   900     112.826 -78.475-245.386  1.00  0.00    -0.328 OA
HETATM    3  C2  UNK   900     112.275 -77.873-244.251  1.00  0.00     0.094 C 
HETATM    4  C3  UNK   900     111.924 -78.734-243.226  1.00  0.00     0.026 C 
HETATM    5  C4  UNK   900     111.418 -78.165-242.086  1.00  0.00     0.019 C 
HETATM    6  C5  UNK   900     111.173 -76.817-242.022  1.00  0.00     0.059 C 
HETATM    7  C6  UNK   900     111.361 -75.974-243.112  1.00  0.00     0.005 C 
HETATM    8  C7  UNK   900     112.081 -76.503-244.162  1.00  0.00     0.022 C 
HETATM    9  C8  UNK   900     110.716 -74.711-242.742  1.00  0.00     0.114 C 
HETATM   10  C9  UNK   900     109.251 -74.648-243.047  1.00  0.00     0.039 C 
HETATM   11  C10 UNK   900     108.964 -73.164-242.873  1.00  0.00     0.105 C 
HETATM   12  N1  UNK   900     110.253 -72.501-243.054  1.00  0.00    -0.319 N 
HETATM   13  C11 UNK   900     110.335 -71.079-243.156  1.00  0.00     0.233 C 
HETATM   14  O2  UNK   900     110.078 -70.601-244.303  1.00  0.00    -0.272 OA
HETATM   15  C16 UNK   900     111.258 -73.496-243.423  1.00  0.00     0.117 C 
HETATM   16  C17 UNK   900     110.883 -74.686-241.270  1.00  0.00     0.242 C 
HETATM   17  O3  UNK   900     110.785 -73.655-240.571  1.00  0.00    -0.272 OA
HETATM   18  N2  UNK   900     110.810 -76.050-240.871  1.00  0.00    -0.297 N 
HETATM   19  C18 UNK   900     110.392 -76.535-239.558  1.00  0.00     0.133 C 
ENDROOT
BRANCH  13  20
HETATM   20  C12 UNK   900     109.782 -70.301-242.003  1.00  0.00     0.071 C 
HETATM   21  C13 UNK   900     109.989 -68.809-242.238  1.00  0.00     0.009 C 
HETATM   22  C14 UNK   900     110.478 -70.637-240.709  1.00  0.00     0.009 C 
HETATM   23  C15 UNK   900     108.292 -70.584-241.869  1.00  0.00     0.009 C 
ENDBRANCH  13  20
TORSDOF 1
ENDMDL
MODEL 5
REMARK VINA RESULT:      -4.8     31.748     34.739
REMARK  1 active torsions:
REMARK  status: ('A' for Active; 'I' for Inactive)
REMARK       I    between atoms: N1_12  and  C11_13 
REMARK    1  A    between atoms: C11_13  and  C12_15 
ROOT
HETATM    1  C1  UNK   900     106.225 -61.930-241.209  1.00  0.00     0.181 C 
HETATM    2  O1  UNK   900     106.226 -62.319-241.659  1.00  0.00    -0.328 OA
HETATM    3  C2  UNK   900     106.402 -63.180-242.745  1.00  0.00     0.094 C 
HETATM    4  C3  UNK   900     106.136 -62.638-243.990  1.00  0.00     0.026 C 
HETATM    5  C4  UNK   900     106.339 -63.451-245.075  1.00  0.00     0.019 C 
HETATM    6  C5  UNK   900     106.678 -64.769-244.912  1.00  0.00     0.059 C 
HETATM    7  C6  UNK   900     106.775 -65.363-243.659  1.00  0.00     0.005 C 
HETATM    8  C7  UNK   900     106.802 -64.498-242.586  1.00  0.00     0.022 C 
HETATM    9  C8  UNK   900     106.853 -66.804-243.917  1.00  0.00     0.114 C 
HETATM   10  C9  UNK   900     105.525 -67.484-244.048  1.00  0.00     0.039 C 
HETATM   11  C10 UNK   900     105.922 -68.951-243.971  1.00  0.00     0.105 C 
HETATM   12  N1  UNK   900     107.209 -68.964-243.278  1.00  0.00    -0.319 N 
HETATM   13  C11 UNK   900     107.796 -70.192-242.850  1.00  0.00     0.233 C 
HETATM   14  O2  UNK   900     107.352 -70.652-241.753  1.00  0.00    -0.272 OA
HETATM   15  C16 UNK   900     107.541 -67.603-242.858  1.00  0.00     0.117 C 
HETATM   16  C17 UNK   900     107.533 -66.857-245.232  1.00  0.00     0.242 C 
HETATM   17  O3  UNK   900     108.101 -67.873-245.685  1.00  0.00    -0.272 OA
HETATM   18  N2  UNK   900     107.082 -65.698-245.922  1.00  0.00    -0.297 N 
HETATM   19  C18 UNK   900     107.011 -65.541-247.372  1.00  0.00     0.133 C 
ENDROOT
BRANCH  13  20
HETATM   20  C12 UNK   900     108.044 -71.214-243.914  1.00  0.00     0.071 C 
HETATM   21  C13 UNK   900     108.144 -72.600-243.290  1.00  0.00     0.009 C 
HETATM   22  C14 UNK   900     109.343 -70.970-244.639  1.00  0.00     0.009 C 
HETATM   23  C15 UNK   900     106.893 -71.197-244.911  1.00  0.00     0.009 C 
ENDBRANCH  13  20
TORSDOF 1
ENDMDL
MODEL 6
REMARK VINA RESULT:      -4.7     32.777     34.218
REMARK  1 active torsions:
REMARK  status: ('A' for Active; 'I' for Inactive)
REMARK       I    between atoms: N1_12  and  C11_13 
REMARK    1  A    between atoms: C11_13  and  C12_15 
ROOT
HETATM    1  C1  UNK   900     112.637 -67.293-246.059  1.00  0.00     0.181 C 
HETATM    2  O1  UNK   900     112.218 -67.626-245.800  1.00  0.00    -0.328 OA
HETATM    3  C2  UNK   900     111.187 -68.462-245.361  1.00  0.00     0.094 C 
HETATM    4  C3  UNK   900     109.929 -67.888-245.312  1.00  0.00     0.026 C 
HETATM    5  C4  UNK   900     108.894 -68.698-244.922  1.00  0.00     0.019 C 
HETATM    6  C5  UNK   900     109.128 -69.980-244.496  1.00  0.00     0.059 C 
HETATM    7  C6  UNK   900     110.411 -70.503-244.377  1.00  0.00     0.005 C 
HETATM    8  C7  UNK   900     111.413 -69.777-244.985  1.00  0.00     0.022 C 
HETATM    9  C8  UNK   900     110.254 -71.750-243.623  1.00  0.00     0.114 C 
HETATM   10  C9  UNK   900     110.271 -71.583-242.134  1.00  0.00     0.039 C 
HETATM   11  C10 UNK   900     110.426 -73.022-241.665  1.00  0.00     0.105 C 
HETATM   12  N1  UNK   900     111.020 -73.732-242.796  1.00  0.00    -0.319 N 
HETATM   13  C11 UNK   900     111.493 -75.070-242.650  1.00  0.00     0.233 C 
HETATM   14  O2  UNK   900     112.651 -75.185-242.141  1.00  0.00    -0.272 OA
HETATM   15  C16 UNK   900     111.314 -72.776-243.862  1.00  0.00     0.117 C 
HETATM   16  C17 UNK   900     108.900 -72.198-244.023  1.00  0.00     0.242 C 
HETATM   17  O3  UNK   900     108.481 -73.367-243.890  1.00  0.00    -0.272 OA
HETATM   18  N2  UNK   900     108.161 -70.997-244.217  1.00  0.00    -0.297 N 
HETATM   19  C18 UNK   900     106.713 -70.856-244.096  1.00  0.00     0.133 C 
ENDROOT
BRANCH  13  20
HETATM   20  C12 UNK   900     110.491 -76.080-242.186  1.00  0.00     0.071 C 
HETATM   21  C13 UNK   900     111.088 -77.480-242.266  1.00  0.00     0.009 C 
HETATM   22  C14 UNK   900     109.255 -76.086-243.048  1.00  0.00     0.009 C 
HETATM   23  C15 UNK   900     110.105 -75.783-240.743  1.00  0.00     0.009 C 
ENDBRANCH  13  20
TORSDOF 1
ENDMDL
MODEL 7
REMARK VINA RESULT:      -4.7      3.251      4.200
REMARK  1 active torsions:
REMARK  status: ('A' for Active; 'I' for Inactive)
REMARK       I    between atoms: N1_12  and  C11_13 
REMARK    1  A    between atoms: C11_13  and  C12_15 
ROOT
HETATM    1  C1  UNK   900     111.078 -77.992-281.636  1.00  0.00     0.181 C 
HETATM    2  O1  UNK   900     110.615 -78.058-281.269  1.00  0.00    -0.328 OA
HETATM    3  C2  UNK   900     109.645 -78.284-280.289  1.00  0.00     0.094 C 
HETATM    4  C3  UNK   900     109.060 -79.539-280.301  1.00  0.00     0.026 C 
HETATM    5  C4  UNK   900     108.134 -79.799-279.325  1.00  0.00     0.019 C 
HETATM    6  C5  UNK   900     107.734 -78.818-278.455  1.00  0.00     0.059 C 
HETATM    7  C6  UNK   900     108.190 -77.508-278.551  1.00  0.00     0.005 C 
HETATM    8  C7  UNK   900     109.281 -77.311-279.371  1.00  0.00     0.022 C 
HETATM    9  C8  UNK   900     107.321 -76.728-277.665  1.00  0.00     0.114 C 
HETATM   10  C9  UNK   900     106.053 -76.248-278.301  1.00  0.00     0.039 C 
HETATM   11  C10 UNK   900     105.561 -75.234-277.280  1.00  0.00     0.105 C 
HETATM   12  N1  UNK   900     106.752 -74.831-276.535  1.00  0.00    -0.319 N 
HETATM   13  C11 UNK   900     106.705 -73.737-275.619  1.00  0.00     0.233 C 
HETATM   14  O2  UNK   900     106.806 -72.586-276.143  1.00  0.00    -0.272 OA
HETATM   15  C16 UNK   900     107.926 -75.473-277.123  1.00  0.00     0.117 C 
HETATM   16  C17 UNK   900     106.969 -77.713-276.615  1.00  0.00     0.242 C 
HETATM   17  O3  UNK   900     106.522 -77.407-275.490  1.00  0.00    -0.272 OA
HETATM   18  N2  UNK   900     106.914 -78.963-277.292  1.00  0.00    -0.297 N 
HETATM   19  C18 UNK   900     106.128 -80.123-276.882  1.00  0.00     0.133 C 
ENDROOT
BRANCH  13  20
HETATM   20  C12 UNK   900     105.707 -73.846-274.509  1.00  0.00     0.071 C 
HETATM   21  C13 UNK   900     106.313 -74.611-273.339  1.00  0.00     0.009 C 
HETATM   22  C14 UNK   900     104.474 -74.603-274.930  1.00  0.00     0.009 C 
HETATM   23  C15 UNK   900     105.314 -72.450-274.044  1.00  0.00     0.009 C 
ENDBRANCH  13  20
TORSDOF 1
ENDMDL
MODEL 8
REMARK VINA RESULT:      -4.6     29.286     31.463
REMARK  1 active torsions:
REMARK  status: ('A' for Active; 'I' for Inactive)
REMARK       I    between atoms: N1_12  and  C11_13 
REMARK    1  A    between atoms: C11_13  and  C12_15 
ROOT
HETATM    1  C1  UNK   900      95.481 -58.616-254.650  1.00  0.00     0.181 C 
HETATM    2  O1  UNK   900      95.861 -58.481-254.214  1.00  0.00    -0.328 OA
HETATM    3  C2  UNK   900      96.697 -58.317-253.106  1.00  0.00     0.094 C 
HETATM    4  C3  UNK   900      96.141 -57.652-252.027  1.00  0.00     0.026 C 
HETATM    5  C4  UNK   900      96.928 -57.513-250.913  1.00  0.00     0.019 C 
HETATM    6  C5  UNK   900      98.237 -57.919-250.923  1.00  0.00     0.059 C 
HETATM    7  C6  UNK   900      98.850 -58.428-252.062  1.00  0.00     0.005 C 
HETATM    8  C7  UNK   900      98.004 -58.779-253.092  1.00  0.00     0.022 C 
HETATM    9  C8  UNK   900     100.283 -58.453-251.754  1.00  0.00     0.114 C 
HETATM   10  C9  UNK   900     101.003 -57.170-252.038  1.00  0.00     0.039 C 
HETATM   11  C10 UNK   900     102.458 -57.606-251.943  1.00  0.00     0.105 C 
HETATM   12  N1  UNK   900     102.442 -59.048-252.185  1.00  0.00    -0.319 N 
HETATM   13  C11 UNK   900     103.659 -59.770-252.368  1.00  0.00     0.233 C 
HETATM   14  O2  UNK   900     104.152 -59.715-253.537  1.00  0.00    -0.272 OA
HETATM   15  C16 UNK   900     101.080 -59.465-252.512  1.00  0.00     0.117 C 
HETATM   16  C17 UNK   900     100.292 -58.674-250.289  1.00  0.00     0.242 C 
HETATM   17  O3  UNK   900     101.280 -59.090-249.649  1.00  0.00    -0.272 OA
HETATM   18  N2  UNK   900      99.134 -57.997-249.812  1.00  0.00    -0.297 N 
HETATM   19  C18 UNK   900      98.954 -57.458-248.466  1.00  0.00     0.133 C 
ENDROOT
BRANCH  13  20
HETATM   20  C12 UNK   900     104.653 -59.687-251.253  1.00  0.00     0.071 C 
HETATM   21  C13 UNK   900     105.677 -60.808-251.385  1.00  0.00     0.009 C 
HETATM   22  C14 UNK   900     104.003 -59.849-249.903  1.00  0.00     0.009 C 
HETATM   23  C15 UNK   900     105.371 -58.345-251.315  1.00  0.00     0.009 C 
ENDBRANCH  13  20
TORSDOF 1
ENDMDL
MODEL 9
REMARK VINA RESULT:      -4.5      2.763      3.569
REMARK  1 active torsions:
REMARK  status: ('A' for Active; 'I' for Inactive)
REMARK       I    between atoms: N1_12  and  C11_13 
REMARK    1  A    between atoms: C11_13  and  C12_15 
ROOT
HETATM    1  C1  UNK   900     111.234 -76.519-280.114  1.00  0.00     0.181 C 
HETATM    2  O1  UNK   900     110.788 -76.208-279.875  1.00  0.00    -0.328 OA
HETATM    3  C2  UNK   900     109.688 -75.438-279.485  1.00  0.00     0.094 C 
HETATM    4  C3  UNK   900     109.916 -74.078-279.374  1.00  0.00     0.026 C 
HETATM    5  C4  UNK   900     108.843 -73.297-279.031  1.00  0.00     0.019 C 
HETATM    6  C5  UNK   900     107.637 -73.862-278.707  1.00  0.00     0.059 C 
HETATM    7  C6  UNK   900     107.453 -75.239-278.647  1.00  0.00     0.005 C 
HETATM    8  C7  UNK   900     108.451 -76.003-279.213  1.00  0.00     0.022 C 
HETATM    9  C8  UNK   900     106.158 -75.430-277.987  1.00  0.00     0.114 C 
HETATM   10  C9  UNK   900     106.220 -75.454-276.491  1.00  0.00     0.039 C 
HETATM   11  C10 UNK   900     104.839 -75.985-276.134  1.00  0.00     0.105 C 
HETATM   12  N1  UNK   900     104.386 -76.701-277.324  1.00  0.00    -0.319 N 
HETATM   13  C11 UNK   900     103.206 -77.503-277.287  1.00  0.00     0.233 C 
HETATM   14  O2  UNK   900     103.355 -78.668-276.805  1.00  0.00    -0.272 OA
HETATM   15  C16 UNK   900     105.456 -76.707-278.319  1.00  0.00     0.117 C 
HETATM   16  C17 UNK   900     105.408 -74.220-278.400  1.00  0.00     0.242 C 
HETATM   17  O3  UNK   900     104.164 -74.117-278.349  1.00  0.00    -0.272 OA
HETATM   18  N2  UNK   900     106.390 -73.196-278.491  1.00  0.00    -0.297 N 
HETATM   19  C18 UNK   900     106.148 -71.764-278.338  1.00  0.00     0.133 C 
ENDROOT
BRANCH  13  20
HETATM   20  C12 UNK   900     101.944 -76.806-276.885  1.00  0.00     0.071 C 
HETATM   21  C13 UNK   900     101.327 -76.112-278.093  1.00  0.00     0.009 C 
HETATM   22  C14 UNK   900     102.193 -75.739-275.851  1.00  0.00     0.009 C 
HETATM   23  C15 UNK   900     100.955 -77.826-276.336  1.00  0.00     0.009 C 
ENDBRANCH  13  20
TORSDOF 1
ENDMDL
