MODEL 1
REMARK VINA RESULT:      -5.2      0.000      0.000
REMARK  6 active torsions:
REMARK  status: ('A' for Active; 'I' for Inactive)
REMARK    1  A    between atoms: C1_2  and  C2_3 
REMARK       I    between atoms: C1_2  and  N3_16 
REMARK    2  A    between atoms: C2_3  and  C3_4 
REMARK    3  A    between atoms: C4_7  and  C5_8 
REMARK    4  A    between atoms: N3_16  and  C11_17 
REMARK    5  A    between atoms: C11_17  and  C12_18 
REMARK    6  A    between atoms: C12_18  and  C13_19 
ROOT
HETATM    1  O1  UNK   900     118.047 -76.989-257.381  1.00  0.00    -0.270 OA
HETATM    2  C1  UNK   900     116.996 -76.891-258.047  1.00  0.00     0.260 C 
HETATM    3  N3  UNK   900     117.013 -76.654-259.458  1.00  0.00    -0.237 NA
ENDROOT
BRANCH   2   4
HETATM    4  C2  UNK   900     115.692 -76.678-257.352  1.00  0.00     0.163 C 
BRANCH   4   5
HETATM    5  C3  UNK   900     115.303 -75.261-257.632  1.00  0.00     0.191 C 
HETATM    6  N1  UNK   900     114.530 -74.838-258.661  1.00  0.00    -0.125 NA
HETATM    7  N2  UNK   900     114.765 -73.548-258.903  1.00  0.00    -0.121 NA
HETATM    8  C4  UNK   900     115.606 -73.172-257.909  1.00  0.00     0.204 C 
HETATM    9  O2  UNK   900     116.162 -74.271-257.458  1.00  0.00    -0.271 OA
BRANCH   8  10
HETATM   10  C5  UNK   900     115.801 -71.799-257.429  1.00  0.00     0.043 C 
HETATM   11  C6  UNK   900     116.506 -71.622-256.253  1.00  0.00     0.004 C 
HETATM   12  C7  UNK   900     116.484 -70.375-255.657  1.00  0.00     0.007 C 
HETATM   13  C8  UNK   900     115.480 -69.484-255.981  1.00  0.00     0.035 C 
HETATM   14 BR1  UNK   900     114.776 -68.223-254.736  1.00  0.00    -0.049 Br
HETATM   15  C9  UNK   900     114.871 -69.623-257.214  1.00  0.00     0.007 C 
HETATM   16  C10 UNK   900     115.087 -70.742-257.979  1.00  0.00     0.004 C 
ENDBRANCH   8  10
ENDBRANCH   4   5
ENDBRANCH   2   4
BRANCH   3  17
HETATM   17  C11 UNK   900     118.246 -76.743-260.205  1.00  0.00     0.133 C 
BRANCH  17  18
HETATM   18  C12 UNK   900     119.057 -75.483-260.110  1.00  0.00     0.054 C 
BRANCH  18  19
HETATM   19  C13 UNK   900     118.642 -74.479-261.140  1.00  0.00     0.000 C 
HETATM   20  C14 UNK   900     117.775 -74.768-262.187  1.00  0.00     0.095 C 
HETATM   21  N4  UNK   900     117.006 -73.688-262.413  1.00  0.00    -0.244 NA
HETATM   22  C15 UNK   900     117.302 -72.695-261.568  1.00  0.00     0.081 C 
HETATM   23  C16 UNK   900     116.797 -71.426-261.305  1.00  0.00     0.019 C 
HETATM   24  C20 UNK   900     118.419 -73.140-260.872  1.00  0.00     0.015 C 
HETATM   25  C17 UNK   900     117.545 -70.574-260.507  1.00  0.00     0.002 C 
HETATM   26  C18 UNK   900     118.739 -70.948-259.925  1.00  0.00     0.000 C 
HETATM   27  C19 UNK   900     119.178 -72.241-260.173  1.00  0.00     0.001 C 
ENDBRANCH  18  19
ENDBRANCH  17  18
ENDBRANCH   3  17
TORSDOF 6
ENDMDL
MODEL 2
REMARK VINA RESULT:      -5.2     30.163     31.533
REMARK  6 active torsions:
REMARK  status: ('A' for Active; 'I' for Inactive)
REMARK    1  A    between atoms: C1_2  and  C2_3 
REMARK       I    between atoms: C1_2  and  N3_16 
REMARK    2  A    between atoms: C2_3  and  C3_4 
REMARK    3  A    between atoms: C4_7  and  C5_8 
REMARK    4  A    between atoms: N3_16  and  C11_17 
REMARK    5  A    between atoms: C11_17  and  C12_18 
REMARK    6  A    between atoms: C12_18  and  C13_19 
ROOT
HETATM    1  O1  UNK   900      88.998 -82.537-270.264  1.00  0.00    -0.270 OA
HETATM    2  C1  UNK   900      90.124 -82.461-270.798  1.00  0.00     0.260 C 
HETATM    3  N3  UNK   900      90.879 -81.245-270.801  1.00  0.00    -0.237 NA
ENDROOT
BRANCH   2   4
HETATM    4  C2  UNK   900      90.573 -83.525-271.742  1.00  0.00     0.163 C 
BRANCH   4   5
HETATM    5  C3  UNK   900      90.732 -82.857-273.072  1.00  0.00     0.191 C 
HETATM    6  N1  UNK   900      89.808 -82.830-274.062  1.00  0.00    -0.125 NA
HETATM    7  N2  UNK   900      90.405 -82.597-275.231  1.00  0.00    -0.121 NA
HETATM    8  C4  UNK   900      91.697 -82.357-274.902  1.00  0.00     0.204 C 
HETATM    9  O2  UNK   900      91.884 -82.892-273.719  1.00  0.00    -0.271 OA
BRANCH   8  10
HETATM   10  C5  UNK   900      92.660 -81.606-275.715  1.00  0.00     0.043 C 
HETATM   11  C6  UNK   900      92.315 -81.319-277.022  1.00  0.00     0.004 C 
HETATM   12  C7  UNK   900      93.295 -80.840-277.870  1.00  0.00     0.007 C 
HETATM   13  C8  UNK   900      94.624 -81.040-277.554  1.00  0.00     0.035 C 
HETATM   14 BR1  UNK   900      95.975 -81.285-278.877  1.00  0.00    -0.049 Br
HETATM   15  C9  UNK   900      94.949 -81.214-276.221  1.00  0.00     0.007 C 
HETATM   16  C10 UNK   900      93.968 -81.420-275.283  1.00  0.00     0.004 C 
ENDBRANCH   8  10
ENDBRANCH   4   5
ENDBRANCH   2   4
BRANCH   3  17
HETATM   17  C11 UNK   900      90.469 -80.121-269.992  1.00  0.00     0.133 C 
BRANCH  17  18
HETATM   18  C12 UNK   900      90.125 -78.920-270.824  1.00  0.00     0.054 C 
BRANCH  18  19
HETATM   19  C13 UNK   900      88.958 -79.186-271.722  1.00  0.00     0.000 C 
HETATM   20  C14 UNK   900      87.637 -78.965-271.350  1.00  0.00     0.095 C 
HETATM   21  N4  UNK   900      86.961 -78.519-272.423  1.00  0.00    -0.244 NA
HETATM   22  C15 UNK   900      87.758 -78.417-273.492  1.00  0.00     0.081 C 
HETATM   23  C16 UNK   900      87.620 -77.960-274.798  1.00  0.00     0.019 C 
HETATM   24  C20 UNK   900      88.966 -78.970-273.090  1.00  0.00     0.015 C 
HETATM   25  C17 UNK   900      88.624 -78.255-275.707  1.00  0.00     0.002 C 
HETATM   26  C18 UNK   900      89.772 -78.939-275.359  1.00  0.00     0.000 C 
HETATM   27  C19 UNK   900      89.889 -79.331-274.034  1.00  0.00     0.001 C 
ENDBRANCH  18  19
ENDBRANCH  17  18
ENDBRANCH   3  17
TORSDOF 6
ENDMDL
MODEL 3
REMARK VINA RESULT:      -4.9     22.727     25.332
REMARK  6 active torsions:
REMARK  status: ('A' for Active; 'I' for Inactive)
REMARK    1  A    between atoms: C1_2  and  C2_3 
REMARK       I    between atoms: C1_2  and  N3_16 
REMARK    2  A    between atoms: C2_3  and  C3_4 
REMARK    3  A    between atoms: C4_7  and  C5_8 
REMARK    4  A    between atoms: N3_16  and  C11_17 
REMARK    5  A    between atoms: C11_17  and  C12_18 
REMARK    6  A    between atoms: C12_18  and  C13_19 
ROOT
HETATM    1  O1  UNK   900      95.768 -85.065-257.135  1.00  0.00    -0.270 OA
HETATM    2  C1  UNK   900      95.091 -85.716-256.313  1.00  0.00     0.260 C 
HETATM    3  N3  UNK   900      95.641 -86.171-255.072  1.00  0.00    -0.237 NA
ENDROOT
BRANCH   2   4
HETATM    4  C2  UNK   900      93.801 -86.335-256.736  1.00  0.00     0.163 C 
BRANCH   4   5
HETATM    5  C3  UNK   900      94.051 -86.925-258.089  1.00  0.00     0.191 C 
HETATM    6  N1  UNK   900      95.058 -87.770-258.413  1.00  0.00    -0.125 NA
HETATM    7  N2  UNK   900      95.283 -87.723-259.726  1.00  0.00    -0.121 NA
HETATM    8  C4  UNK   900      94.299 -86.922-260.203  1.00  0.00     0.204 C 
HETATM    9  O2  UNK   900      93.877 -86.209-259.186  1.00  0.00    -0.271 OA
BRANCH   8  10
HETATM   10  C5  UNK   900      93.800 -86.912-261.583  1.00  0.00     0.043 C 
HETATM   11  C6  UNK   900      92.491 -86.521-261.792  1.00  0.00     0.004 C 
HETATM   12  C7  UNK   900      91.931 -86.742-263.036  1.00  0.00     0.007 C 
HETATM   13  C8  UNK   900      92.497 -87.677-263.879  1.00  0.00     0.035 C 
HETATM   14 BR1  UNK   900      91.471 -88.717-265.105  1.00  0.00    -0.049 Br
HETATM   15  C9  UNK   900      93.839 -87.963-263.713  1.00  0.00     0.007 C 
HETATM   16  C10 UNK   900      94.518 -87.519-262.606  1.00  0.00     0.004 C 
ENDBRANCH   8  10
ENDBRANCH   4   5
ENDBRANCH   2   4
BRANCH   3  17
HETATM   17  C11 UNK   900      96.930 -85.701-254.621  1.00  0.00     0.133 C 
BRANCH  17  18
HETATM   18  C12 UNK   900      96.856 -85.054-253.269  1.00  0.00     0.054 C 
BRANCH  18  19
HETATM   19  C13 UNK   900      97.000 -83.567-253.360  1.00  0.00     0.000 C 
HETATM   20  C14 UNK   900      96.302 -82.677-252.550  1.00  0.00     0.095 C 
HETATM   21  N4  UNK   900      97.107 -81.639-252.267  1.00  0.00    -0.244 NA
HETATM   22  C15 UNK   900      98.311 -81.788-252.831  1.00  0.00     0.081 C 
HETATM   23  C16 UNK   900      99.513 -81.088-252.815  1.00  0.00     0.019 C 
HETATM   24  C20 UNK   900      98.193 -82.918-253.629  1.00  0.00     0.015 C 
HETATM   25  C17 UNK   900     100.481 -81.425-253.748  1.00  0.00     0.002 C 
HETATM   26  C18 UNK   900     100.322 -82.454-254.655  1.00  0.00     0.000 C 
HETATM   27  C19 UNK   900      99.127 -83.157-254.599  1.00  0.00     0.001 C 
ENDBRANCH  18  19
ENDBRANCH  17  18
ENDBRANCH   3  17
TORSDOF 6
ENDMDL
MODEL 4
REMARK VINA RESULT:      -4.9     24.498     27.194
REMARK  6 active torsions:
REMARK  status: ('A' for Active; 'I' for Inactive)
REMARK    1  A    between atoms: C1_2  and  C2_3 
REMARK       I    between atoms: C1_2  and  N3_16 
REMARK    2  A    between atoms: C2_3  and  C3_4 
REMARK    3  A    between atoms: C4_7  and  C5_8 
REMARK    4  A    between atoms: N3_16  and  C11_17 
REMARK    5  A    between atoms: C11_17  and  C12_18 
REMARK    6  A    between atoms: C12_18  and  C13_19 
ROOT
HETATM    1  O1  UNK   900      94.959 -85.306-257.921  1.00  0.00    -0.270 OA
HETATM    2  C1  UNK   900      94.059 -85.481-257.073  1.00  0.00     0.260 C 
HETATM    3  N3  UNK   900      94.357 -85.750-255.699  1.00  0.00    -0.237 NA
ENDROOT
BRANCH   2   4
HETATM    4  C2  UNK   900      92.661 -85.755-257.518  1.00  0.00     0.163 C 
BRANCH   4   5
HETATM    5  C3  UNK   900      92.662 -85.590-259.005  1.00  0.00     0.191 C 
HETATM    6  N1  UNK   900      92.121 -84.554-259.690  1.00  0.00    -0.125 NA
HETATM    7  N2  UNK   900      91.865 -84.925-260.944  1.00  0.00    -0.121 NA
HETATM    8  C4  UNK   900      92.384 -86.174-261.033  1.00  0.00     0.204 C 
HETATM    9  O2  UNK   900      92.476 -86.626-259.805  1.00  0.00    -0.271 OA
BRANCH   8  10
HETATM   10  C5  UNK   900      92.793 -86.842-262.274  1.00  0.00     0.043 C 
HETATM   11  C6  UNK   900      91.935 -86.773-263.356  1.00  0.00     0.004 C 
HETATM   12  C7  UNK   900      92.178 -87.596-264.440  1.00  0.00     0.007 C 
HETATM   13  C8  UNK   900      92.969 -88.716-264.279  1.00  0.00     0.035 C 
HETATM   14 BR1  UNK   900      92.698 -90.322-265.269  1.00  0.00    -0.049 Br
HETATM   15  C9  UNK   900      93.895 -88.707-263.252  1.00  0.00     0.007 C 
HETATM   16  C10 UNK   900      93.862 -87.729-262.289  1.00  0.00     0.004 C 
ENDBRANCH   8  10
ENDBRANCH   4   5
ENDBRANCH   2   4
BRANCH   3  17
HETATM   17  C11 UNK   900      95.702 -85.606-255.194  1.00  0.00     0.133 C 
BRANCH  17  18
HETATM   18  C12 UNK   900      95.818 -86.038-253.761  1.00  0.00     0.054 C 
BRANCH  18  19
HETATM   19  C13 UNK   900      94.905 -85.253-252.872  1.00  0.00     0.000 C 
HETATM   20  C14 UNK   900      93.933 -85.834-252.066  1.00  0.00     0.095 C 
HETATM   21  N4  UNK   900      93.859 -85.137-250.919  1.00  0.00    -0.244 NA
HETATM   22  C15 UNK   900      94.737 -84.128-250.905  1.00  0.00     0.081 C 
HETATM   23  C16 UNK   900      95.134 -83.165-249.984  1.00  0.00     0.019 C 
HETATM   24  C20 UNK   900      95.285 -84.115-252.181  1.00  0.00     0.015 C 
HETATM   25  C17 UNK   900      95.910 -82.108-250.433  1.00  0.00     0.002 C 
HETATM   26  C18 UNK   900      96.343 -81.997-251.739  1.00  0.00     0.000 C 
HETATM   27  C19 UNK   900      95.965 -83.008-252.611  1.00  0.00     0.001 C 
ENDBRANCH  18  19
ENDBRANCH  17  18
ENDBRANCH   3  17
TORSDOF 6
ENDMDL
MODEL 5
REMARK VINA RESULT:      -4.7     32.035     33.098
REMARK  6 active torsions:
REMARK  status: ('A' for Active; 'I' for Inactive)
REMARK    1  A    between atoms: C1_2  and  C2_3 
REMARK       I    between atoms: C1_2  and  N3_16 
REMARK    2  A    between atoms: C2_3  and  C3_4 
REMARK    3  A    between atoms: C4_7  and  C5_8 
REMARK    4  A    between atoms: N3_16  and  C11_17 
REMARK    5  A    between atoms: C11_17  and  C12_18 
REMARK    6  A    between atoms: C12_18  and  C13_19 
ROOT
HETATM    1  O1  UNK   900      83.102 -75.190-272.084  1.00  0.00    -0.270 OA
HETATM    2  C1  UNK   900      83.356 -76.409-272.013  1.00  0.00     0.260 C 
HETATM    3  N3  UNK   900      84.041 -77.102-273.062  1.00  0.00    -0.237 NA
ENDROOT
BRANCH   2   4
HETATM    4  C2  UNK   900      82.665 -77.256-270.997  1.00  0.00     0.163 C 
BRANCH   4   5
HETATM    5  C3  UNK   900      83.379 -77.014-269.704  1.00  0.00     0.191 C 
HETATM    6  N1  UNK   900      83.365 -75.862-268.993  1.00  0.00    -0.125 NA
HETATM    7  N2  UNK   900      84.432 -75.809-268.196  1.00  0.00    -0.121 NA
HETATM    8  C4  UNK   900      85.024 -77.018-268.352  1.00  0.00     0.204 C 
HETATM    9  O2  UNK   900      84.592 -77.497-269.495  1.00  0.00    -0.271 OA
BRANCH   8  10
HETATM   10  C5  UNK   900      85.931 -77.655-267.391  1.00  0.00     0.043 C 
HETATM   11  C6  UNK   900      86.361 -76.903-266.314  1.00  0.00     0.004 C 
HETATM   12  C7  UNK   900      87.399 -77.392-265.545  1.00  0.00     0.007 C 
HETATM   13  C8  UNK   900      88.236 -78.358-266.068  1.00  0.00     0.035 C 
HETATM   14 BR1  UNK   900      90.083 -78.482-265.612  1.00  0.00    -0.049 Br
HETATM   15  C9  UNK   900      87.735 -79.168-267.070  1.00  0.00     0.007 C 
HETATM   16  C10 UNK   900      86.545 -78.867-267.684  1.00  0.00     0.004 C 
ENDBRANCH   8  10
ENDBRANCH   4   5
ENDBRANCH   2   4
BRANCH   3  17
HETATM   17  C11 UNK   900      84.661 -76.373-274.144  1.00  0.00     0.133 C 
BRANCH  17  18
HETATM   18  C12 UNK   900      85.856 -77.092-274.699  1.00  0.00     0.054 C 
BRANCH  18  19
HETATM   19  C13 UNK   900      86.953 -76.142-275.064  1.00  0.00     0.000 C 
HETATM   20  C14 UNK   900      86.729 -74.892-275.630  1.00  0.00     0.095 C 
HETATM   21  N4  UNK   900      87.640 -74.034-275.138  1.00  0.00    -0.244 NA
HETATM   22  C15 UNK   900      88.454 -74.636-274.264  1.00  0.00     0.081 C 
HETATM   23  C16 UNK   900      89.490 -74.235-273.427  1.00  0.00     0.019 C 
HETATM   24  C20 UNK   900      88.115 -75.981-274.330  1.00  0.00     0.015 C 
HETATM   25  C17 UNK   900      90.278 -75.214-272.844  1.00  0.00     0.002 C 
HETATM   26  C18 UNK   900      90.049 -76.564-273.018  1.00  0.00     0.000 C 
HETATM   27  C19 UNK   900      88.974 -76.917-273.820  1.00  0.00     0.001 C 
ENDBRANCH  18  19
ENDBRANCH  17  18
ENDBRANCH   3  17
TORSDOF 6
ENDMDL
MODEL 6
REMARK VINA RESULT:      -4.7     28.225     30.219
REMARK  6 active torsions:
REMARK  status: ('A' for Active; 'I' for Inactive)
REMARK    1  A    between atoms: C1_2  and  C2_3 
REMARK       I    between atoms: C1_2  and  N3_16 
REMARK    2  A    between atoms: C2_3  and  C3_4 
REMARK    3  A    between atoms: C4_7  and  C5_8 
REMARK    4  A    between atoms: N3_16  and  C11_17 
REMARK    5  A    between atoms: C11_17  and  C12_18 
REMARK    6  A    between atoms: C12_18  and  C13_19 
ROOT
HETATM    1  O1  UNK   900      87.092 -74.026-250.092  1.00  0.00    -0.270 OA
HETATM    2  C1  UNK   900      87.941 -74.535-250.852  1.00  0.00     0.260 C 
HETATM    3  N3  UNK   900      89.265 -74.004-250.971  1.00  0.00    -0.237 NA
ENDROOT
BRANCH   2   4
HETATM    4  C2  UNK   900      87.512 -75.497-251.910  1.00  0.00     0.163 C 
BRANCH   4   5
HETATM    5  C3  UNK   900      86.836 -74.675-252.963  1.00  0.00     0.191 C 
HETATM    6  N1  UNK   900      87.086 -73.372-253.236  1.00  0.00    -0.125 NA
HETATM    7  N2  UNK   900      86.037 -72.830-253.853  1.00  0.00    -0.121 NA
HETATM    8  C4  UNK   900      85.197 -73.874-254.060  1.00  0.00     0.204 C 
HETATM    9  O2  UNK   900      85.542 -74.802-253.200  1.00  0.00    -0.271 OA
BRANCH   8  10
HETATM   10  C5  UNK   900      84.148 -73.936-255.083  1.00  0.00     0.043 C 
HETATM   11  C6  UNK   900      82.864 -73.579-254.713  1.00  0.00     0.004 C 
HETATM   12  C7  UNK   900      81.827 -73.867-255.579  1.00  0.00     0.007 C 
HETATM   13  C8  UNK   900      82.003 -74.830-256.554  1.00  0.00     0.035 C 
HETATM   14 BR1  UNK   900      80.585 -75.943-257.174  1.00  0.00    -0.049 Br
HETATM   15  C9  UNK   900      83.294 -75.083-256.981  1.00  0.00     0.007 C 
HETATM   16  C10 UNK   900      84.370 -74.576-256.296  1.00  0.00     0.004 C 
ENDBRANCH   8  10
ENDBRANCH   4   5
ENDBRANCH   2   4
BRANCH   3  17
HETATM   17  C11 UNK   900      89.741 -72.998-250.051  1.00  0.00     0.133 C 
BRANCH  17  18
HETATM   18  C12 UNK   900      91.228 -72.809-250.138  1.00  0.00     0.054 C 
BRANCH  18  19
HETATM   19  C13 UNK   900      91.964 -74.074-249.825  1.00  0.00     0.000 C 
HETATM   20  C14 UNK   900      92.873 -74.668-250.694  1.00  0.00     0.095 C 
HETATM   21  N4  UNK   900      93.872 -75.199-249.966  1.00  0.00    -0.244 NA
HETATM   22  C15 UNK   900      93.689 -74.985-248.659  1.00  0.00     0.081 C 
HETATM   23  C16 UNK   900      94.411 -75.236-247.497  1.00  0.00     0.019 C 
HETATM   24  C20 UNK   900      92.428 -74.411-248.565  1.00  0.00     0.015 C 
HETATM   25  C17 UNK   900      93.765 -75.091-246.279  1.00  0.00     0.002 C 
HETATM   26  C18 UNK   900      92.458 -74.664-246.170  1.00  0.00     0.000 C 
HETATM   27  C19 UNK   900      91.793 -74.376-247.353  1.00  0.00     0.001 C 
ENDBRANCH  18  19
ENDBRANCH  17  18
ENDBRANCH   3  17
TORSDOF 6
ENDMDL
MODEL 7
REMARK VINA RESULT:      -4.6     31.485     32.955
REMARK  6 active torsions:
REMARK  status: ('A' for Active; 'I' for Inactive)
REMARK    1  A    between atoms: C1_2  and  C2_3 
REMARK       I    between atoms: C1_2  and  N3_16 
REMARK    2  A    between atoms: C2_3  and  C3_4 
REMARK    3  A    between atoms: C4_7  and  C5_8 
REMARK    4  A    between atoms: N3_16  and  C11_17 
REMARK    5  A    between atoms: C11_17  and  C12_18 
REMARK    6  A    between atoms: C12_18  and  C13_19 
ROOT
HETATM    1  O1  UNK   900      88.347 -66.147-274.251  1.00  0.00    -0.270 OA
HETATM    2  C1  UNK   900      88.067 -65.852-275.432  1.00  0.00     0.260 C 
HETATM    3  N3  UNK   900      88.424 -66.701-276.528  1.00  0.00    -0.237 NA
ENDROOT
BRANCH   2   4
HETATM    4  C2  UNK   900      87.659 -64.458-275.775  1.00  0.00     0.163 C 
BRANCH   4   5
HETATM    5  C3  UNK   900      88.702 -63.565-275.179  1.00  0.00     0.191 C 
HETATM    6  N1  UNK   900      88.511 -62.687-274.166  1.00  0.00    -0.125 NA
HETATM    7  N2  UNK   900      89.454 -61.746-274.199  1.00  0.00    -0.121 NA
HETATM    8  C4  UNK   900      90.293 -62.152-275.182  1.00  0.00     0.204 C 
HETATM    9  O2  UNK   900      89.607 -62.974-275.939  1.00  0.00    -0.271 OA
BRANCH   8  10
HETATM   10  C5  UNK   900      91.702 -61.762-275.318  1.00  0.00     0.043 C 
HETATM   11  C6  UNK   900      92.284 -61.074-274.269  1.00  0.00     0.004 C 
HETATM   12  C7  UNK   900      93.516 -60.484-274.476  1.00  0.00     0.007 C 
HETATM   13  C8  UNK   900      93.941 -60.231-275.765  1.00  0.00     0.035 C 
HETATM   14 BR1  UNK   900      95.042 -58.741-276.216  1.00  0.00    -0.049 Br
HETATM   15  C9  UNK   900      93.420 -61.014-276.779  1.00  0.00     0.007 C 
HETATM   16  C10 UNK   900      92.349 -61.840-276.545  1.00  0.00     0.004 C 
ENDBRANCH   8  10
ENDBRANCH   4   5
ENDBRANCH   2   4
BRANCH   3  17
HETATM   17  C11 UNK   900      88.921 -68.037-276.294  1.00  0.00     0.133 C 
BRANCH  17  18
HETATM   18  C12 UNK   900      87.813 -69.046-276.208  1.00  0.00     0.054 C 
BRANCH  18  19
HETATM   19  C13 UNK   900      87.863 -69.814-274.924  1.00  0.00     0.000 C 
HETATM   20  C14 UNK   900      86.840 -69.805-273.984  1.00  0.00     0.095 C 
HETATM   21  N4  UNK   900      86.750 -71.032-273.441  1.00  0.00    -0.244 NA
HETATM   22  C15 UNK   900      87.649 -71.867-273.974  1.00  0.00     0.081 C 
HETATM   23  C16 UNK   900      87.949 -73.219-273.851  1.00  0.00     0.019 C 
HETATM   24  C20 UNK   900      88.435 -71.068-274.793  1.00  0.00     0.015 C 
HETATM   25  C17 UNK   900      89.140 -73.679-274.390  1.00  0.00     0.002 C 
HETATM   26  C18 UNK   900      90.014 -72.864-275.082  1.00  0.00     0.000 C 
HETATM   27  C19 UNK   900      89.648 -71.533-275.223  1.00  0.00     0.001 C 
ENDBRANCH  18  19
ENDBRANCH  17  18
ENDBRANCH   3  17
TORSDOF 6
ENDMDL
MODEL 8
REMARK VINA RESULT:      -4.6     34.454     36.006
REMARK  6 active torsions:
REMARK  status: ('A' for Active; 'I' for Inactive)
REMARK    1  A    between atoms: C1_2  and  C2_3 
REMARK       I    between atoms: C1_2  and  N3_16 
REMARK    2  A    between atoms: C2_3  and  C3_4 
REMARK    3  A    between atoms: C4_7  and  C5_8 
REMARK    4  A    between atoms: N3_16  and  C11_17 
REMARK    5  A    between atoms: C11_17  and  C12_18 
REMARK    6  A    between atoms: C12_18  and  C13_19 
ROOT
HETATM    1  O1  UNK   900      91.865 -70.962-279.589  1.00  0.00    -0.270 OA
HETATM    2  C1  UNK   900      90.833 -71.661-279.660  1.00  0.00     0.260 C 
HETATM    3  N3  UNK   900      89.701 -71.426-278.814  1.00  0.00    -0.237 NA
ENDROOT
BRANCH   2   4
HETATM    4  C2  UNK   900      90.866 -72.967-280.380  1.00  0.00     0.163 C 
BRANCH   4   5
HETATM    5  C3  UNK   900      90.114 -72.754-281.656  1.00  0.00     0.191 C 
HETATM    6  N1  UNK   900      90.003 -71.581-282.325  1.00  0.00    -0.125 NA
HETATM    7  N2  UNK   900      88.925 -71.608-283.109  1.00  0.00    -0.121 NA
HETATM    8  C4  UNK   900      88.460 -72.875-282.991  1.00  0.00     0.204 C 
HETATM    9  O2  UNK   900      88.953 -73.348-281.871  1.00  0.00    -0.271 OA
BRANCH   8  10
HETATM   10  C5  UNK   900      87.609 -73.567-283.965  1.00  0.00     0.043 C 
HETATM   11  C6  UNK   900      87.897 -74.889-284.249  1.00  0.00     0.004 C 
HETATM   12  C7  UNK   900      87.276 -75.477-285.335  1.00  0.00     0.007 C 
HETATM   13  C8  UNK   900      86.735 -74.679-286.323  1.00  0.00     0.035 C 
HETATM   14 BR1  UNK   900      86.681 -75.199-288.157  1.00  0.00    -0.049 Br
HETATM   15  C9  UNK   900      86.355 -73.396-285.976  1.00  0.00     0.007 C 
HETATM   16  C10 UNK   900      86.722 -72.860-284.767  1.00  0.00     0.004 C 
ENDBRANCH   8  10
ENDBRANCH   4   5
ENDBRANCH   2   4
BRANCH   3  17
HETATM   17  C11 UNK   900      89.622 -70.233-278.004  1.00  0.00     0.133 C 
BRANCH  17  18
HETATM   18  C12 UNK   900      89.016 -70.503-276.658  1.00  0.00     0.054 C 
BRANCH  18  19
HETATM   19  C13 UNK   900      89.325 -71.887-276.180  1.00  0.00     0.000 C 
HETATM   20  C14 UNK   900      90.422 -72.197-275.383  1.00  0.00     0.095 C 
HETATM   21  N4  UNK   900      90.061 -73.159-274.517  1.00  0.00    -0.244 NA
HETATM   22  C15 UNK   900      88.779 -73.505-274.679  1.00  0.00     0.081 C 
HETATM   23  C16 UNK   900      87.888 -74.359-274.039  1.00  0.00     0.019 C 
HETATM   24  C20 UNK   900      88.365 -72.814-275.811  1.00  0.00     0.015 C 
HETATM   25  C17 UNK   900      86.686 -74.644-274.668  1.00  0.00     0.002 C 
HETATM   26  C18 UNK   900      86.318 -74.081-275.873  1.00  0.00     0.000 C 
HETATM   27  C19 UNK   900      87.217 -73.195-276.450  1.00  0.00     0.001 C 
ENDBRANCH  18  19
ENDBRANCH  17  18
ENDBRANCH   3  17
TORSDOF 6
ENDMDL
MODEL 9
REMARK VINA RESULT:      -4.5     30.565     32.492
REMARK  6 active torsions:
REMARK  status: ('A' for Active; 'I' for Inactive)
REMARK    1  A    between atoms: C1_2  and  C2_3 
REMARK       I    between atoms: C1_2  and  N3_16 
REMARK    2  A    between atoms: C2_3  and  C3_4 
REMARK    3  A    between atoms: C4_7  and  C5_8 
REMARK    4  A    between atoms: N3_16  and  C11_17 
REMARK    5  A    between atoms: C11_17  and  C12_18 
REMARK    6  A    between atoms: C12_18  and  C13_19 
ROOT
HETATM    1  O1  UNK   900      85.697 -80.948-260.014  1.00  0.00    -0.270 OA
HETATM    2  C1  UNK   900      85.135 -80.382-260.974  1.00  0.00     0.260 C 
HETATM    3  N3  UNK   900      84.650 -79.039-260.881  1.00  0.00    -0.237 NA
ENDROOT
BRANCH   2   4
HETATM    4  C2  UNK   900      84.644 -81.188-262.130  1.00  0.00     0.163 C 
BRANCH   4   5
HETATM    5  C3  UNK   900      85.766 -81.212-263.121  1.00  0.00     0.191 C 
HETATM    6  N1  UNK   900      86.844 -82.031-263.081  1.00  0.00    -0.125 NA
HETATM    7  N2  UNK   900      87.843 -81.499-263.784  1.00  0.00    -0.121 NA
HETATM    8  C4  UNK   900      87.297 -80.398-264.355  1.00  0.00     0.204 C 
HETATM    9  O2  UNK   900      86.242 -80.093-263.638  1.00  0.00    -0.271 OA
BRANCH   8  10
HETATM   10  C5  UNK   900      87.792 -79.729-265.564  1.00  0.00     0.043 C 
HETATM   11  C6  UNK   900      87.040 -79.847-266.718  1.00  0.00     0.004 C 
HETATM   12  C7  UNK   900      87.606 -79.444-267.913  1.00  0.00     0.007 C 
HETATM   13  C8  UNK   900      88.979 -79.333-268.012  1.00  0.00     0.035 C 
HETATM   14 BR1  UNK   900      89.929 -79.679-269.629  1.00  0.00    -0.049 Br
HETATM   15  C9  UNK   900      89.690 -79.105-266.849  1.00  0.00     0.007 C 
HETATM   16  C10 UNK   900      89.085 -79.224-265.623  1.00  0.00     0.004 C 
ENDBRANCH   8  10
ENDBRANCH   4   5
ENDBRANCH   2   4
BRANCH   3  17
HETATM   17  C11 UNK   900      84.992 -78.209-259.749  1.00  0.00     0.133 C 
BRANCH  17  18
HETATM   18  C12 UNK   900      83.869 -78.114-258.757  1.00  0.00     0.054 C 
BRANCH  18  19
HETATM   19  C13 UNK   900      83.407 -76.701-258.579  1.00  0.00     0.000 C 
HETATM   20  C14 UNK   900      82.141 -76.256-258.940  1.00  0.00     0.095 C 
HETATM   21  N4  UNK   900      81.736 -75.345-258.038  1.00  0.00    -0.244 NA
HETATM   22  C15 UNK   900      82.656 -75.163-257.084  1.00  0.00     0.081 C 
HETATM   23  C16 UNK   900      82.740 -74.425-255.908  1.00  0.00     0.019 C 
HETATM   24  C20 UNK   900      83.755 -75.901-257.504  1.00  0.00     0.015 C 
HETATM   25  C17 UNK   900      83.981 -74.293-255.304  1.00  0.00     0.002 C 
HETATM   26  C18 UNK   900      85.120 -74.899-255.791  1.00  0.00     0.000 C 
HETATM   27  C19 UNK   900      84.979 -75.667-256.938  1.00  0.00     0.001 C 
ENDBRANCH  18  19
ENDBRANCH  17  18
ENDBRANCH   3  17
TORSDOF 6
ENDMDL
