MODEL 1
REMARK VINA RESULT:      -6.2      0.000      0.000
REMARK  4 active torsions:
REMARK  status: ('A' for Active; 'I' for Inactive)
REMARK    1  A    between atoms: C17_20  and  C18_21 
REMARK    2  A    between atoms: C23_26  and  O3_27 
REMARK    3  A    between atoms: O3_27  and  C24_28 
REMARK    4  A    between atoms: C24_28  and  C25_29 
ROOT
HETATM    1  C1  UNK   900      99.509 -79.350-283.340  1.00  0.00     0.001 C 
HETATM    2  C2  UNK   900     100.244 -78.877-282.097  1.00  0.00     0.013 C 
HETATM    3  C3  UNK   900      99.755 -79.722-280.929  1.00  0.00     0.001 C 
HETATM    4  C4  UNK   900      99.904 -77.432-281.876  1.00  0.00     0.069 C 
HETATM    5  C5  UNK   900     100.926 -76.721-281.050  1.00  0.00     0.171 C 
HETATM    6  O1  UNK   900     101.055 -75.493-281.237  1.00  0.00    -0.292 OA
HETATM    7  C6  UNK   900     102.081 -77.457-280.535  1.00  0.00     0.034 C 
HETATM    8  C7  UNK   900     102.334 -78.705-280.926  1.00  0.00     0.058 C 
HETATM    9  C8  UNK   900     101.732 -79.125-282.211  1.00  0.00     0.046 C 
HETATM   10  N1  UNK   900     102.801 -79.631-279.941  1.00  0.00    -0.255 NA
HETATM   11  C9  UNK   900     103.590 -79.059-278.889  1.00  0.00     0.058 C 
HETATM   12  C10 UNK   900     103.982 -77.795-279.058  1.00  0.00     0.034 C 
HETATM   13  C11 UNK   900     105.224 -77.412-278.394  1.00  0.00     0.171 C 
HETATM   14  O2  UNK   900     105.553 -76.206-278.388  1.00  0.00    -0.292 OA
HETATM   15  C12 UNK   900     106.161 -78.388-277.790  1.00  0.00     0.069 C 
HETATM   16  C13 UNK   900     105.693 -79.811-277.919  1.00  0.00     0.013 C 
HETATM   17  C14 UNK   900     106.280 -80.693-276.826  1.00  0.00     0.001 C 
HETATM   18  C15 UNK   900     106.104 -80.425-279.250  1.00  0.00     0.001 C 
HETATM   19  C16 UNK   900     104.182 -79.927-277.822  1.00  0.00     0.046 C 
HETATM   20  C17 UNK   900     102.956 -76.828-279.506  1.00  0.00     0.076 C 
ENDROOT
BRANCH  20  21
HETATM   21  C18 UNK   900     102.091 -76.488-278.335  1.00  0.00     0.008 C 
HETATM   22  C19 UNK   900     101.618 -77.570-277.604  1.00  0.00    -0.002 C 
HETATM   23  C20 UNK   900     101.014 -77.369-276.374  1.00  0.00    -0.000 C 
HETATM   24  C21 UNK   900     100.743 -76.061-275.996  1.00  0.00     0.002 C 
HETATM   25  C22 UNK   900     101.188 -74.986-276.753  1.00  0.00     0.024 C 
HETATM   26  C23 UNK   900     102.178 -75.269-277.685  1.00  0.00     0.091 C 
BRANCH  26  27
HETATM   27  O3  UNK   900     103.010 -74.274-278.181  1.00  0.00    -0.326 OA
BRANCH  27  28
HETATM   28  C24 UNK   900     103.322 -73.139-277.387  1.00  0.00     0.176 C 
BRANCH  28  29
HETATM   29  C25 UNK   900     104.764 -73.066-277.057  1.00  0.00     0.018 C 
HETATM   30  C26 UNK   900     105.621 -72.169-277.671  1.00  0.00    -0.001 C 
HETATM   31  C27 UNK   900     106.971 -72.473-277.598  1.00  0.00    -0.000 C 
HETATM   32  C28 UNK   900     107.414 -73.449-276.714  1.00  0.00     0.001 C 
HETATM   33  C29 UNK   900     106.559 -73.976-275.756  1.00  0.00     0.011 C 
HETATM   34  C30 UNK   900     105.216 -73.791-275.966  1.00  0.00     0.056 C 
HETATM   35 CL1  UNK   900     104.069 -74.298-274.732  1.00  0.00    -0.083 Cl
ENDBRANCH  28  29
ENDBRANCH  27  28
ENDBRANCH  26  27
ENDBRANCH  20  21
TORSDOF 4
ENDMDL
MODEL 2
REMARK VINA RESULT:      -6.1     25.011     27.553
REMARK  4 active torsions:
REMARK  status: ('A' for Active; 'I' for Inactive)
REMARK    1  A    between atoms: C17_20  and  C18_21 
REMARK    2  A    between atoms: C23_26  and  O3_27 
REMARK    3  A    between atoms: O3_27  and  C24_28 
REMARK    4  A    between atoms: C24_28  and  C25_29 
ROOT
HETATM    1  C1  UNK   900     104.308 -88.674-256.314  1.00  0.00     0.001 C 
HETATM    2  C2  UNK   900     104.090 -87.336-255.627  1.00  0.00     0.013 C 
HETATM    3  C3  UNK   900     104.380 -86.247-256.650  1.00  0.00     0.001 C 
HETATM    4  C4  UNK   900     105.049 -87.242-254.476  1.00  0.00     0.069 C 
HETATM    5  C5  UNK   900     104.601 -86.269-253.434  1.00  0.00     0.171 C 
HETATM    6  O1  UNK   900     104.976 -86.479-252.261  1.00  0.00    -0.292 OA
HETATM    7  C6  UNK   900     103.361 -85.518-253.628  1.00  0.00     0.034 C 
HETATM    8  C7  UNK   900     102.531 -85.805-254.631  1.00  0.00     0.058 C 
HETATM    9  C8  UNK   900     102.646 -87.161-255.211  1.00  0.00     0.046 C 
HETATM   10  N1  UNK   900     101.905 -84.713-255.311  1.00  0.00    -0.255 NA
HETATM   11  C9  UNK   900     101.647 -83.556-254.504  1.00  0.00     0.058 C 
HETATM   12  C10 UNK   900     101.808 -83.701-253.187  1.00  0.00     0.034 C 
HETATM   13  C11 UNK   900     100.996 -82.833-252.340  1.00  0.00     0.171 C 
HETATM   14  O2  UNK   900     101.220 -82.815-251.111  1.00  0.00    -0.292 OA
HETATM   15  C12 UNK   900      99.862 -82.026-252.849  1.00  0.00     0.069 C 
HETATM   16  C13 UNK   900      99.645 -82.181-254.329  1.00  0.00     0.013 C 
HETATM   17  C14 UNK   900      98.952 -80.963-254.922  1.00  0.00     0.001 C 
HETATM   18  C15 UNK   900      98.772 -83.387-254.650  1.00  0.00     0.001 C 
HETATM   19  C16 UNK   900     100.951 -82.363-255.082  1.00  0.00     0.046 C 
HETATM   20  C17 UNK   900     103.046 -84.371-252.732  1.00  0.00     0.076 C 
ENDROOT
BRANCH  20  21
HETATM   21  C18 UNK   900     104.174 -83.396-252.845  1.00  0.00     0.008 C 
HETATM   22  C19 UNK   900     104.350 -82.824-254.098  1.00  0.00    -0.002 C 
HETATM   23  C20 UNK   900     105.200 -81.742-254.256  1.00  0.00    -0.000 C 
HETATM   24  C21 UNK   900     105.990 -81.380-253.173  1.00  0.00     0.002 C 
HETATM   25  C22 UNK   900     105.833 -81.984-251.934  1.00  0.00     0.024 C 
HETATM   26  C23 UNK   900     104.654 -82.697-251.751  1.00  0.00     0.091 C 
BRANCH  26  27
HETATM   27  O3  UNK   900     104.162 -82.968-250.481  1.00  0.00    -0.326 OA
BRANCH  27  28
HETATM   28  C24 UNK   900     105.055 -83.201-249.402  1.00  0.00     0.176 C 
BRANCH  28  29
HETATM   29  C25 UNK   900     105.262 -84.646-249.150  1.00  0.00     0.018 C 
HETATM   30  C26 UNK   900     104.209 -85.537-249.034  1.00  0.00    -0.001 C 
HETATM   31  C27 UNK   900     104.496 -86.734-248.396  1.00  0.00    -0.000 C 
HETATM   32  C28 UNK   900     105.817 -87.100-248.172  1.00  0.00     0.001 C 
HETATM   33  C29 UNK   900     106.856 -86.392-248.759  1.00  0.00     0.011 C 
HETATM   34  C30 UNK   900     106.556 -85.136-249.225  1.00  0.00     0.056 C 
HETATM   35 CL1  UNK   900     107.774 -84.227-250.111  1.00  0.00    -0.083 Cl
ENDBRANCH  28  29
ENDBRANCH  27  28
ENDBRANCH  26  27
ENDBRANCH  20  21
TORSDOF 4
ENDMDL
MODEL 3
REMARK VINA RESULT:      -5.9     15.074     17.539
REMARK  4 active torsions:
REMARK  status: ('A' for Active; 'I' for Inactive)
REMARK    1  A    between atoms: C17_20  and  C18_21 
REMARK    2  A    between atoms: C23_26  and  O3_27 
REMARK    3  A    between atoms: O3_27  and  C24_28 
REMARK    4  A    between atoms: C24_28  and  C25_29 
ROOT
HETATM    1  C1  UNK   900      90.877 -71.680-281.607  1.00  0.00     0.001 C 
HETATM    2  C2  UNK   900      90.035 -71.216-280.429  1.00  0.00     0.013 C 
HETATM    3  C3  UNK   900      88.588 -71.576-280.734  1.00  0.00     0.001 C 
HETATM    4  C4  UNK   900      90.189 -69.728-280.304  1.00  0.00     0.069 C 
HETATM    5  C5  UNK   900      89.870 -69.231-278.931  1.00  0.00     0.171 C 
HETATM    6  O1  UNK   900      90.443 -68.187-278.556  1.00  0.00    -0.292 OA
HETATM    7  C6  UNK   900      89.434 -70.175-277.902  1.00  0.00     0.034 C 
HETATM    8  C7  UNK   900      89.478 -71.491-278.110  1.00  0.00     0.058 C 
HETATM    9  C8  UNK   900      90.404 -71.959-279.164  1.00  0.00     0.046 C 
HETATM   10  N1  UNK   900      88.392 -72.281-277.615  1.00  0.00    -0.255 NA
HETATM   11  C9  UNK   900      87.769 -71.786-276.422  1.00  0.00     0.058 C 
HETATM   12  C10 UNK   900      88.396 -70.791-275.791  1.00  0.00     0.034 C 
HETATM   13  C11 UNK   900      88.179 -70.703-274.351  1.00  0.00     0.171 C 
HETATM   14  O2  UNK   900      88.611 -69.702-273.739  1.00  0.00    -0.292 OA
HETATM   15  C12 UNK   900      87.538 -71.776-273.556  1.00  0.00     0.069 C 
HETATM   16  C13 UNK   900      87.122 -72.958-274.388  1.00  0.00     0.013 C 
HETATM   17  C14 UNK   900      85.977 -73.722-273.738  1.00  0.00     0.001 C 
HETATM   18  C15 UNK   900      88.263 -73.948-274.578  1.00  0.00     0.001 C 
HETATM   19  C16 UNK   900      86.654 -72.545-275.773  1.00  0.00     0.046 C 
HETATM   20  C17 UNK   900      88.869 -69.662-276.623  1.00  0.00     0.076 C 
ENDROOT
BRANCH  20  21
HETATM   21  C18 UNK   900      87.691 -68.809-276.968  1.00  0.00     0.008 C 
HETATM   22  C19 UNK   900      86.520 -69.495-277.265  1.00  0.00    -0.002 C 
HETATM   23  C20 UNK   900      85.319 -68.812-277.362  1.00  0.00    -0.000 C 
HETATM   24  C21 UNK   900      85.363 -67.425-277.334  1.00  0.00     0.002 C 
HETATM   25  C22 UNK   900      86.545 -66.747-277.073  1.00  0.00     0.024 C 
HETATM   26  C23 UNK   900      87.569 -67.505-276.520  1.00  0.00     0.091 C 
BRANCH  26  27
HETATM   27  O3  UNK   900      88.609 -66.911-275.816  1.00  0.00    -0.326 OA
BRANCH  27  28
HETATM   28  C24 UNK   900      88.402 -66.441-274.493  1.00  0.00     0.176 C 
BRANCH  28  29
HETATM   29  C25 UNK   900      88.189 -64.976-274.446  1.00  0.00     0.018 C 
HETATM   30  C26 UNK   900      88.810 -64.107-275.327  1.00  0.00    -0.001 C 
HETATM   31  C27 UNK   900      88.869 -62.781-274.930  1.00  0.00    -0.000 C 
HETATM   32  C28 UNK   900      88.092 -62.342-273.865  1.00  0.00     0.001 C 
HETATM   33  C29 UNK   900      87.104 -63.155-273.328  1.00  0.00     0.011 C 
HETATM   34  C30 UNK   900      87.190 -64.495-273.616  1.00  0.00     0.056 C 
HETATM   35 CL1  UNK   900      85.902 -65.575-273.098  1.00  0.00    -0.083 Cl
ENDBRANCH  28  29
ENDBRANCH  27  28
ENDBRANCH  26  27
ENDBRANCH  20  21
TORSDOF 4
ENDMDL
MODEL 4
REMARK VINA RESULT:      -5.9      3.830      5.332
REMARK  4 active torsions:
REMARK  status: ('A' for Active; 'I' for Inactive)
REMARK    1  A    between atoms: C17_20  and  C18_21 
REMARK    2  A    between atoms: C23_26  and  O3_27 
REMARK    3  A    between atoms: O3_27  and  C24_28 
REMARK    4  A    between atoms: C24_28  and  C25_29 
ROOT
HETATM    1  C1  UNK   900     102.803 -72.437-284.283  1.00  0.00     0.001 C 
HETATM    2  C2  UNK   900     103.445 -72.787-282.950  1.00  0.00     0.013 C 
HETATM    3  C3  UNK   900     103.576 -74.302-282.892  1.00  0.00     0.001 C 
HETATM    4  C4  UNK   900     102.541 -72.297-281.855  1.00  0.00     0.069 C 
HETATM    5  C5  UNK   900     103.263 -72.095-280.563  1.00  0.00     0.171 C 
HETATM    6  O1  UNK   900     102.804 -71.234-279.783  1.00  0.00    -0.292 OA
HETATM    7  C6  UNK   900     104.691 -72.402-280.474  1.00  0.00     0.034 C 
HETATM    8  C7  UNK   900     105.403 -72.695-281.563  1.00  0.00     0.058 C 
HETATM    9  C8  UNK   900     104.849 -72.231-282.854  1.00  0.00     0.046 C 
HETATM   10  N1  UNK   900     106.384 -73.730-281.459  1.00  0.00    -0.255 NA
HETATM   11  C9  UNK   900     106.998 -73.865-280.170  1.00  0.00     0.058 C 
HETATM   12  C10 UNK   900     106.758 -72.890-279.292  1.00  0.00     0.034 C 
HETATM   13  C11 UNK   900     107.792 -72.659-278.288  1.00  0.00     0.171 C 
HETATM   14  O2  UNK   900     107.551 -71.870-277.349  1.00  0.00    -0.292 OA
HETATM   15  C12 UNK   900     109.148 -73.251-278.362  1.00  0.00     0.069 C 
HETATM   16  C13 UNK   900     109.344 -74.126-279.570  1.00  0.00     0.013 C 
HETATM   17  C14 UNK   900     110.429 -75.166-279.334  1.00  0.00     0.001 C 
HETATM   18  C15 UNK   900     109.761 -73.320-280.792  1.00  0.00     0.001 C 
HETATM   19  C16 UNK   900     108.077 -74.877-279.941  1.00  0.00     0.046 C 
HETATM   20  C17 UNK   900     105.352 -72.453-279.140  1.00  0.00     0.076 C 
ENDROOT
BRANCH  20  21
HETATM   21  C18 UNK   900     104.629 -73.477-278.325  1.00  0.00     0.008 C 
HETATM   22  C19 UNK   900     104.648 -74.770-278.832  1.00  0.00    -0.002 C 
HETATM   23  C20 UNK   900     104.222 -75.830-278.049  1.00  0.00    -0.000 C 
HETATM   24  C21 UNK   900     103.619 -75.533-276.835  1.00  0.00     0.002 C 
HETATM   25  C22 UNK   900     103.573 -74.232-276.354  1.00  0.00     0.024 C 
HETATM   26  C23 UNK   900     104.434 -73.329-276.963  1.00  0.00     0.091 C 
BRANCH  26  27
HETATM   27  O3  UNK   900     104.817 -72.154-276.329  1.00  0.00    -0.326 OA
BRANCH  27  28
HETATM   28  C24 UNK   900     105.034 -72.136-274.926  1.00  0.00     0.176 C 
BRANCH  28  29
HETATM   29  C25 UNK   900     105.829 -73.298-274.467  1.00  0.00     0.018 C 
HETATM   30  C26 UNK   900     106.941 -73.755-275.154  1.00  0.00    -0.001 C 
HETATM   31  C27 UNK   900     107.332 -75.056-274.879  1.00  0.00    -0.000 C 
HETATM   32  C28 UNK   900     106.807 -75.717-273.776  1.00  0.00     0.001 C 
HETATM   33  C29 UNK   900     106.061 -75.031-272.828  1.00  0.00     0.011 C 
HETATM   34  C30 UNK   900     105.553 -73.815-273.211  1.00  0.00     0.056 C 
HETATM   35 CL1  UNK   900     104.720 -72.813-272.029  1.00  0.00    -0.083 Cl
ENDBRANCH  28  29
ENDBRANCH  27  28
ENDBRANCH  26  27
ENDBRANCH  20  21
TORSDOF 4
ENDMDL
MODEL 5
REMARK VINA RESULT:      -5.8     24.287     26.918
REMARK  4 active torsions:
REMARK  status: ('A' for Active; 'I' for Inactive)
REMARK    1  A    between atoms: C17_20  and  C18_21 
REMARK    2  A    between atoms: C23_26  and  O3_27 
REMARK    3  A    between atoms: O3_27  and  C24_28 
REMARK    4  A    between atoms: C24_28  and  C25_29 
ROOT
HETATM    1  C1  UNK   900     106.002 -89.850-254.308  1.00  0.00     0.001 C 
HETATM    2  C2  UNK   900     106.191 -88.406-253.873  1.00  0.00     0.013 C 
HETATM    3  C3  UNK   900     107.437 -88.353-253.000  1.00  0.00     0.001 C 
HETATM    4  C4  UNK   900     104.982 -87.994-253.085  1.00  0.00     0.069 C 
HETATM    5  C5  UNK   900     104.791 -86.512-253.058  1.00  0.00     0.171 C 
HETATM    6  O1  UNK   900     103.623 -86.091-252.927  1.00  0.00    -0.292 OA
HETATM    7  C6  UNK   900     105.756 -85.645-253.735  1.00  0.00     0.034 C 
HETATM    8  C7  UNK   900     106.708 -86.151-254.519  1.00  0.00     0.058 C 
HETATM    9  C8  UNK   900     106.461 -87.506-255.059  1.00  0.00     0.046 C 
HETATM   10  N1  UNK   900     108.008 -85.558-254.458  1.00  0.00    -0.255 NA
HETATM   11  C9  UNK   900     108.027 -84.155-254.158  1.00  0.00     0.058 C 
HETATM   12  C10 UNK   900     106.852 -83.524-254.190  1.00  0.00     0.034 C 
HETATM   13  C11 UNK   900     106.895 -82.102-254.515  1.00  0.00     0.171 C 
HETATM   14  O2  UNK   900     105.847 -81.430-254.404  1.00  0.00    -0.292 OA
HETATM   15  C12 UNK   900     108.099 -81.422-255.048  1.00  0.00     0.069 C 
HETATM   16  C13 UNK   900     109.276 -82.346-255.204  1.00  0.00     0.013 C 
HETATM   17  C14 UNK   900     110.593 -81.585-255.144  1.00  0.00     0.001 C 
HETATM   18  C15 UNK   900     109.249 -83.079-256.538  1.00  0.00     0.001 C 
HETATM   19  C16 UNK   900     109.320 -83.403-254.115  1.00  0.00     0.046 C 
HETATM   20  C17 UNK   900     105.720 -84.175-253.495  1.00  0.00     0.076 C 
ENDROOT
BRANCH  20  21
HETATM   21  C18 UNK   900     105.888 -83.961-252.024  1.00  0.00     0.008 C 
HETATM   22  C19 UNK   900     107.155 -84.225-251.520  1.00  0.00    -0.002 C 
HETATM   23  C20 UNK   900     107.487 -83.836-250.234  1.00  0.00    -0.000 C 
HETATM   24  C21 UNK   900     106.469 -83.348-249.425  1.00  0.00     0.002 C 
HETATM   25  C22 UNK   900     105.196 -83.123-249.929  1.00  0.00     0.024 C 
HETATM   26  C23 UNK   900     105.089 -83.082-251.313  1.00  0.00     0.091 C 
BRANCH  26  27
HETATM   27  O3  UNK   900     104.023 -82.449-251.938  1.00  0.00    -0.326 OA
BRANCH  27  28
HETATM   28  C24 UNK   900     102.689 -82.754-251.563  1.00  0.00     0.176 C 
BRANCH  28  29
HETATM   29  C25 UNK   900     101.727 -82.509-252.662  1.00  0.00     0.018 C 
HETATM   30  C26 UNK   900     101.843 -83.120-253.899  1.00  0.00    -0.001 C 
HETATM   31  C27 UNK   900     101.165 -82.510-254.943  1.00  0.00    -0.000 C 
HETATM   32  C28 UNK   900     100.212 -81.536-254.673  1.00  0.00     0.001 C 
HETATM   33  C29 UNK   900      99.777 -81.311-253.374  1.00  0.00     0.011 C 
HETATM   34  C30 UNK   900     100.578 -81.793-252.369  1.00  0.00     0.056 C 
HETATM   35 CL1  UNK   900     100.033 -81.681-250.700  1.00  0.00    -0.083 Cl
ENDBRANCH  28  29
ENDBRANCH  27  28
ENDBRANCH  26  27
ENDBRANCH  20  21
TORSDOF 4
ENDMDL
MODEL 6
REMARK VINA RESULT:      -5.7      4.201      6.491
REMARK  4 active torsions:
REMARK  status: ('A' for Active; 'I' for Inactive)
REMARK    1  A    between atoms: C17_20  and  C18_21 
REMARK    2  A    between atoms: C23_26  and  O3_27 
REMARK    3  A    between atoms: O3_27  and  C24_28 
REMARK    4  A    between atoms: C24_28  and  C25_29 
ROOT
HETATM    1  C1  UNK   900     106.368 -71.306-283.998  1.00  0.00     0.001 C 
HETATM    2  C2  UNK   900     106.708 -72.360-282.958  1.00  0.00     0.013 C 
HETATM    3  C3  UNK   900     106.702 -73.711-283.659  1.00  0.00     0.001 C 
HETATM    4  C4  UNK   900     105.652 -72.320-281.891  1.00  0.00     0.069 C 
HETATM    5  C5  UNK   900     106.124 -72.895-280.595  1.00  0.00     0.171 C 
HETATM    6  O1  UNK   900     105.594 -72.458-279.552  1.00  0.00    -0.292 OA
HETATM    7  C6  UNK   900     107.478 -73.440-280.493  1.00  0.00     0.034 C 
HETATM    8  C7  UNK   900     108.361 -73.282-281.479  1.00  0.00     0.058 C 
HETATM    9  C8  UNK   900     108.107 -72.165-282.415  1.00  0.00     0.046 C 
HETATM   10  N1  UNK   900     109.216 -74.386-281.791  1.00  0.00    -0.255 NA
HETATM   11  C9  UNK   900     109.556 -75.229-280.682  1.00  0.00     0.058 C 
HETATM   12  C10 UNK   900     109.230 -74.778-279.469  1.00  0.00     0.034 C 
HETATM   13  C11 UNK   900     110.065 -75.240-278.365  1.00  0.00     0.171 C 
HETATM   14  O2  UNK   900     109.710 -74.978-277.195  1.00  0.00    -0.292 OA
HETATM   15  C12 UNK   900     111.357 -75.939-278.556  1.00  0.00     0.069 C 
HETATM   16  C13 UNK   900     111.711 -76.137-280.004  1.00  0.00     0.013 C 
HETATM   17  C14 UNK   900     112.642 -77.326-280.193  1.00  0.00     0.001 C 
HETATM   18  C15 UNK   900     112.422 -74.922-280.585  1.00  0.00     0.001 C 
HETATM   19  C16 UNK   900     110.484 -76.389-280.863  1.00  0.00     0.046 C 
HETATM   20  C17 UNK   900     107.861 -74.242-279.298  1.00  0.00     0.076 C 
ENDROOT
BRANCH  20  21
HETATM   21  C18 UNK   900     106.913 -75.395-279.213  1.00  0.00     0.008 C 
HETATM   22  C19 UNK   900     107.170 -76.448-280.082  1.00  0.00    -0.002 C 
HETATM   23  C20 UNK   900     106.510 -77.655-279.927  1.00  0.00    -0.000 C 
HETATM   24  C21 UNK   900     105.474 -77.709-279.005  1.00  0.00     0.002 C 
HETATM   25  C22 UNK   900     105.201 -76.637-278.166  1.00  0.00     0.024 C 
HETATM   26  C23 UNK   900     106.200 -75.678-278.062  1.00  0.00     0.091 C 
BRANCH  26  27
HETATM   27  O3  UNK   900     106.267 -74.820-276.972  1.00  0.00    -0.326 OA
BRANCH  27  28
HETATM   28  C24 UNK   900     106.709 -75.296-275.710  1.00  0.00     0.176 C 
BRANCH  28  29
HETATM   29  C25 UNK   900     106.185 -74.482-274.590  1.00  0.00     0.018 C 
HETATM   30  C26 UNK   900     105.996 -75.001-273.320  1.00  0.00    -0.001 C 
HETATM   31  C27 UNK   900     105.133 -74.294-272.498  1.00  0.00    -0.000 C 
HETATM   32  C28 UNK   900     104.740 -73.009-272.850  1.00  0.00     0.001 C 
HETATM   33  C29 UNK   900     105.359 -72.342-273.898  1.00  0.00     0.011 C 
HETATM   34  C30 UNK   900     106.066 -73.116-274.784  1.00  0.00     0.056 C 
HETATM   35 CL1  UNK   900     107.000 -72.339-276.057  1.00  0.00    -0.083 Cl
ENDBRANCH  28  29
ENDBRANCH  27  28
ENDBRANCH  26  27
ENDBRANCH  20  21
TORSDOF 4
ENDMDL
MODEL 7
REMARK VINA RESULT:      -5.5     28.832     31.405
REMARK  4 active torsions:
REMARK  status: ('A' for Active; 'I' for Inactive)
REMARK    1  A    between atoms: C17_20  and  C18_21 
REMARK    2  A    between atoms: C23_26  and  O3_27 
REMARK    3  A    between atoms: O3_27  and  C24_28 
REMARK    4  A    between atoms: C24_28  and  C25_29 
ROOT
HETATM    1  C1  UNK   900      96.791 -58.393-254.759  1.00  0.00     0.001 C 
HETATM    2  C2  UNK   900      95.466 -57.992-255.386  1.00  0.00     0.013 C 
HETATM    3  C3  UNK   900      95.335 -56.482-255.247  1.00  0.00     0.001 C 
HETATM    4  C4  UNK   900      94.366 -58.684-254.633  1.00  0.00     0.069 C 
HETATM    5  C5  UNK   900      93.112 -58.808-255.436  1.00  0.00     0.171 C 
HETATM    6  O1  UNK   900      92.361 -59.771-255.173  1.00  0.00    -0.292 OA
HETATM    7  C6  UNK   900      93.059 -58.253-256.789  1.00  0.00     0.034 C 
HETATM    8  C7  UNK   900      94.155 -57.789-257.388  1.00  0.00     0.058 C 
HETATM    9  C8  UNK   900      95.448 -58.289-256.869  1.00  0.00     0.046 C 
HETATM   10  N1  UNK   900      94.034 -56.599-258.172  1.00  0.00    -0.255 NA
HETATM   11  C9  UNK   900      92.762 -56.412-258.809  1.00  0.00     0.058 C 
HETATM   12  C10 UNK   900      91.926 -57.452-258.785  1.00  0.00     0.034 C 
HETATM   13  C11 UNK   900      90.973 -57.536-259.887  1.00  0.00     0.171 C 
HETATM   14  O2  UNK   900      90.067 -58.396-259.832  1.00  0.00    -0.292 OA
HETATM   15  C12 UNK   900      91.065 -56.706-261.111  1.00  0.00     0.069 C 
HETATM   16  C13 UNK   900      92.233 -55.758-261.094  1.00  0.00     0.013 C 
HETATM   17  C14 UNK   900      91.984 -54.550-261.985  1.00  0.00     0.001 C 
HETATM   18  C15 UNK   900      93.509 -56.421-261.594  1.00  0.00     0.001 C 
HETATM   19  C16 UNK   900      92.521 -55.233-259.698  1.00  0.00     0.046 C 
HETATM   20  C17 UNK   900      91.748 -58.141-257.488  1.00  0.00     0.076 C 
ENDROOT
BRANCH  20  21
HETATM   21  C18 UNK   900      90.856 -57.301-256.631  1.00  0.00     0.008 C 
HETATM   22  C19 UNK   900      91.134 -55.940-256.629  1.00  0.00    -0.002 C 
HETATM   23  C20 UNK   900      90.236 -55.048-256.068  1.00  0.00    -0.000 C 
HETATM   24  C21 UNK   900      89.162 -55.573-255.362  1.00  0.00     0.002 C 
HETATM   25  C22 UNK   900      88.914 -56.938-255.339  1.00  0.00     0.024 C 
HETATM   26  C23 UNK   900      89.568 -57.690-256.306  1.00  0.00     0.091 C 
BRANCH  26  27
HETATM   27  O3  UNK   900      89.102 -58.942-256.687  1.00  0.00    -0.326 OA
BRANCH  27  28
HETATM   28  C24 UNK   900      88.594 -59.843-255.714  1.00  0.00     0.176 C 
BRANCH  28  29
HETATM   29  C25 UNK   900      89.043 -61.234-255.952  1.00  0.00     0.018 C 
HETATM   30  C26 UNK   900      89.266 -61.735-257.223  1.00  0.00    -0.001 C 
HETATM   31  C27 UNK   900      89.266 -63.116-257.339  1.00  0.00    -0.000 C 
HETATM   32  C28 UNK   900      89.333 -63.906-256.198  1.00  0.00     0.001 C 
HETATM   33  C29 UNK   900      89.610 -63.341-254.961  1.00  0.00     0.011 C 
HETATM   34  C30 UNK   900      89.430 -61.984-254.854  1.00  0.00     0.056 C 
HETATM   35 CL1  UNK   900      89.895 -61.165-253.368  1.00  0.00    -0.083 Cl
ENDBRANCH  28  29
ENDBRANCH  27  28
ENDBRANCH  26  27
ENDBRANCH  20  21
TORSDOF 4
ENDMDL
MODEL 8
REMARK VINA RESULT:      -5.5     31.229     33.767
REMARK  4 active torsions:
REMARK  status: ('A' for Active; 'I' for Inactive)
REMARK    1  A    between atoms: C17_20  and  C18_21 
REMARK    2  A    between atoms: C23_26  and  O3_27 
REMARK    3  A    between atoms: O3_27  and  C24_28 
REMARK    4  A    between atoms: C24_28  and  C25_29 
ROOT
HETATM    1  C1  UNK   900      96.189 -57.563-252.501  1.00  0.00     0.001 C 
HETATM    2  C2  UNK   900      97.678 -57.562-252.201  1.00  0.00     0.013 C 
HETATM    3  C3  UNK   900      98.240 -56.235-252.692  1.00  0.00     0.001 C 
HETATM    4  C4  UNK   900      98.305 -58.704-252.948  1.00  0.00     0.069 C 
HETATM    5  C5  UNK   900      99.604 -59.136-252.351  1.00  0.00     0.171 C 
HETATM    6  O1  UNK   900      99.935 -60.330-252.511  1.00  0.00    -0.292 OA
HETATM    7  C6  UNK   900     100.135 -58.433-251.182  1.00  0.00     0.034 C 
HETATM    8  C7  UNK   900      99.405 -57.527-250.532  1.00  0.00     0.058 C 
HETATM    9  C8  UNK   900      97.939 -57.614-250.712  1.00  0.00     0.046 C 
HETATM   10  N1  UNK   900     100.068 -56.350-250.062  1.00  0.00    -0.255 NA
HETATM   11  C9  UNK   900     101.443 -56.526-249.697  1.00  0.00     0.058 C 
HETATM   12  C10 UNK   900     101.883 -57.784-249.623  1.00  0.00     0.034 C 
HETATM   13  C11 UNK   900     102.986 -58.027-248.698  1.00  0.00     0.171 C 
HETATM   14  O2  UNK   900     103.539 -59.148-248.706  1.00  0.00    -0.292 OA
HETATM   15  C12 UNK   900     103.439 -57.039-247.691  1.00  0.00     0.069 C 
HETATM   16  C13 UNK   900     102.655 -55.756-247.730  1.00  0.00     0.013 C 
HETATM   17  C14 UNK   900     103.466 -54.591-247.182  1.00  0.00     0.001 C 
HETATM   18  C15 UNK   900     101.384 -55.842-246.896  1.00  0.00     0.001 C 
HETATM   19  C16 UNK   900     102.237 -55.385-249.142  1.00  0.00     0.046 C 
HETATM   20  C17 UNK   900     101.537 -58.683-250.746  1.00  0.00     0.076 C 
ENDROOT
BRANCH  20  21
HETATM   21  C18 UNK   900     102.427 -58.354-251.901  1.00  0.00     0.008 C 
HETATM   22  C19 UNK   900     102.518 -57.006-252.224  1.00  0.00    -0.002 C 
HETATM   23  C20 UNK   900     103.487 -56.567-253.109  1.00  0.00    -0.000 C 
HETATM   24  C21 UNK   900     104.226 -57.528-253.785  1.00  0.00     0.002 C 
HETATM   25  C22 UNK   900     104.102 -58.876-253.481  1.00  0.00     0.024 C 
HETATM   26  C23 UNK   900     103.480 -59.171-252.274  1.00  0.00     0.091 C 
BRANCH  26  27
HETATM   27  O3  UNK   900     103.672 -60.393-251.642  1.00  0.00    -0.326 OA
BRANCH  27  28
HETATM   28  C24 UNK   900     104.703 -61.268-252.072  1.00  0.00     0.176 C 
BRANCH  28  29
HETATM   29  C25 UNK   900     105.972 -61.039-251.343  1.00  0.00     0.018 C 
HETATM   30  C26 UNK   900     106.871 -60.052-251.710  1.00  0.00    -0.001 C 
HETATM   31  C27 UNK   900     108.166 -60.207-251.242  1.00  0.00    -0.000 C 
HETATM   32  C28 UNK   900     108.434 -61.131-250.240  1.00  0.00     0.001 C 
HETATM   33  C29 UNK   900     107.398 -61.751-249.554  1.00  0.00     0.011 C 
HETATM   34  C30 UNK   900     106.161 -61.713-250.148  1.00  0.00     0.056 C 
HETATM   35 CL1  UNK   900     104.766 -62.345-249.283  1.00  0.00    -0.083 Cl
ENDBRANCH  28  29
ENDBRANCH  27  28
ENDBRANCH  26  27
ENDBRANCH  20  21
TORSDOF 4
ENDMDL
MODEL 9
REMARK VINA RESULT:      -5.3     30.542     32.474
REMARK  4 active torsions:
REMARK  status: ('A' for Active; 'I' for Inactive)
REMARK    1  A    between atoms: C17_20  and  C18_21 
REMARK    2  A    between atoms: C23_26  and  O3_27 
REMARK    3  A    between atoms: O3_27  and  C24_28 
REMARK    4  A    between atoms: C24_28  and  C25_29 
ROOT
HETATM    1  C1  UNK   900      98.850 -58.803-252.219  1.00  0.00     0.001 C 
HETATM    2  C2  UNK   900     100.321 -58.476-252.025  1.00  0.00     0.013 C 
HETATM    3  C3  UNK   900     100.547 -58.254-250.536  1.00  0.00     0.001 C 
HETATM    4  C4  UNK   900     100.625 -57.221-252.793  1.00  0.00     0.069 C 
HETATM    5  C5  UNK   900     102.076 -57.088-253.124  1.00  0.00     0.171 C 
HETATM    6  O1  UNK   900     102.368 -56.439-254.150  1.00  0.00    -0.292 OA
HETATM    7  C6  UNK   900     103.020 -58.111-252.672  1.00  0.00     0.034 C 
HETATM    8  C7  UNK   900     102.594 -59.247-252.121  1.00  0.00     0.058 C 
HETATM    9  C8  UNK   900     101.200 -59.642-252.423  1.00  0.00     0.046 C 
HETATM   10  N1  UNK   900     103.331 -59.767-251.011  1.00  0.00    -0.255 NA
HETATM   11  C9  UNK   900     104.737 -59.485-251.024  1.00  0.00     0.058 C 
HETATM   12  C10 UNK   900     105.232 -58.975-252.153  1.00  0.00     0.034 C 
HETATM   13  C11 UNK   900     106.636 -59.261-252.428  1.00  0.00     0.171 C 
HETATM   14  O2  UNK   900     107.190 -58.680-253.385  1.00  0.00    -0.292 OA
HETATM   15  C12 UNK   900     107.425 -60.266-251.678  1.00  0.00     0.069 C 
HETATM   16  C13 UNK   900     106.635 -60.949-250.597  1.00  0.00     0.013 C 
HETATM   17  C14 UNK   900     107.540 -61.474-249.491  1.00  0.00     0.001 C 
HETATM   18  C15 UNK   900     105.853 -62.141-251.132  1.00  0.00     0.001 C 
HETATM   19  C16 UNK   900     105.631 -60.014-249.946  1.00  0.00     0.046 C 
HETATM   20  C17 UNK   900     104.484 -57.856-252.769  1.00  0.00     0.076 C 
ENDROOT
BRANCH  20  21
HETATM   21  C18 UNK   900     104.772 -56.614-251.987  1.00  0.00     0.008 C 
HETATM   22  C19 UNK   900     104.669 -56.737-250.607  1.00  0.00    -0.002 C 
HETATM   23  C20 UNK   900     105.141 -55.730-249.783  1.00  0.00    -0.000 C 
HETATM   24  C21 UNK   900     105.543 -54.543-250.381  1.00  0.00     0.002 C 
HETATM   25  C22 UNK   900     105.607 -54.418-251.761  1.00  0.00     0.024 C 
HETATM   26  C23 UNK   900     105.583 -55.607-252.479  1.00  0.00     0.091 C 
BRANCH  26  27
HETATM   27  O3  UNK   900     106.070 -55.677-253.778  1.00  0.00    -0.326 OA
BRANCH  27  28
HETATM   28  C24 UNK   900     107.306 -55.065-254.114  1.00  0.00     0.176 C 
BRANCH  28  29
HETATM   29  C25 UNK   900     107.756 -55.422-255.479  1.00  0.00     0.018 C 
HETATM   30  C26 UNK   900     108.215 -56.688-255.801  1.00  0.00    -0.001 C 
HETATM   31  C27 UNK   900     108.980 -56.780-256.953  1.00  0.00    -0.000 C 
HETATM   32  C28 UNK   900     109.013 -55.719-257.849  1.00  0.00     0.001 C 
HETATM   33  C29 UNK   900     108.131 -54.655-257.718  1.00  0.00     0.011 C 
HETATM   34  C30 UNK   900     107.524 -54.510-256.495  1.00  0.00     0.056 C 
HETATM   35 CL1  UNK   900     106.286 -53.278-256.285  1.00  0.00    -0.083 Cl
ENDBRANCH  28  29
ENDBRANCH  27  28
ENDBRANCH  26  27
ENDBRANCH  20  21
TORSDOF 4
ENDMDL
