MODEL 1
REMARK VINA RESULT:      -5.6      0.000      0.000
REMARK  1 active torsions:
REMARK  status: ('A' for Active; 'I' for Inactive)
REMARK    1  A    between atoms: C8_10  and  C9_11 
ROOT
HETATM    1  C1  UNK   900     116.357 -78.247-248.026  1.00  0.00     0.035 C 
HETATM    2  C2  UNK   900     115.294 -79.101-247.432  1.00  0.00     0.026 C 
HETATM    3  C3  UNK   900     115.409 -80.471-247.596  1.00  0.00     0.129 C 
HETATM    4  O1  UNK   900     115.897 -80.982-248.793  1.00  0.00    -0.190 OA
HETATM    5  C4  UNK   900     114.732 -81.266-246.677  1.00  0.00     0.027 C 
HETATM    6  C5  UNK   900     113.754 -80.711-245.860  1.00  0.00     0.007 C 
HETATM    7  C6  UNK   900     113.568 -79.334-245.859  1.00  0.00     0.062 C 
HETATM    8  C7  UNK   900     112.851 -78.772-244.831  1.00  0.00     0.199 C 
HETATM    9  O2  UNK   900     112.333 -79.403-243.889  1.00  0.00    -0.286 OA
HETATM   10  C8  UNK   900     112.657 -77.402-244.881  1.00  0.00     0.064 C 
HETATM   11  C17 UNK   900     113.003 -76.791-246.080  1.00  0.00     0.126 C 
HETATM   12  O5  UNK   900     113.986 -77.229-246.841  1.00  0.00    -0.305 OA
HETATM   13  C18 UNK   900     114.288 -78.508-246.712  1.00  0.00     0.101 C 
ENDROOT
BRANCH  10  14
HETATM   14  C9  UNK   900     112.455 -76.610-243.660  1.00  0.00     0.007 C 
HETATM   15  C10 UNK   900     113.423 -75.721-243.204  1.00  0.00     0.002 C 
HETATM   16  C11 UNK   900     113.088 -74.439-242.786  1.00  0.00     0.026 C 
HETATM   17  C12 UNK   900     111.755 -74.043-242.720  1.00  0.00     0.116 C 
HETATM   18  C13 UNK   900     110.850 -75.097-242.670  1.00  0.00     0.116 C 
HETATM   19  O4  UNK   900     111.365 -72.753-243.098  1.00  0.00    -0.326 OA
HETATM   20  C14 UNK   900     111.162 -76.334-243.225  1.00  0.00     0.026 C 
HETATM   21  O3  UNK   900     109.511 -74.723-242.527  1.00  0.00    -0.326 OA
HETATM   22  C15 UNK   900     109.224 -73.345-242.344  1.00  0.00     0.181 C 
HETATM   23  C16 UNK   900     109.984 -72.544-243.392  1.00  0.00     0.181 C 
ENDBRANCH  10  14
TORSDOF 1
ENDMDL
MODEL 2
REMARK VINA RESULT:      -5.4     26.829     29.529
REMARK  1 active torsions:
REMARK  status: ('A' for Active; 'I' for Inactive)
REMARK    1  A    between atoms: C8_10  and  C9_11 
ROOT
HETATM    1  C1  UNK   900     121.739 -54.732-263.990  1.00  0.00     0.035 C 
HETATM    2  C2  UNK   900     121.404 -55.587-265.160  1.00  0.00     0.026 C 
HETATM    3  C3  UNK   900     120.830 -54.971-266.259  1.00  0.00     0.129 C 
HETATM    4  O1  UNK   900     119.914 -53.943-266.070  1.00  0.00    -0.190 OA
HETATM    5  C4  UNK   900     120.960 -55.627-267.477  1.00  0.00     0.027 C 
HETATM    6  C5  UNK   900     121.355 -56.959-267.516  1.00  0.00     0.007 C 
HETATM    7  C6  UNK   900     121.767 -57.582-266.343  1.00  0.00     0.062 C 
HETATM    8  C7  UNK   900     122.457 -58.765-266.439  1.00  0.00     0.199 C 
HETATM    9  O2  UNK   900     122.740 -59.346-267.504  1.00  0.00    -0.286 OA
HETATM   10  C8  UNK   900     122.821 -59.373-265.250  1.00  0.00     0.064 C 
HETATM   11  C17 UNK   900     122.244 -58.842-264.103  1.00  0.00     0.126 C 
HETATM   12  O5  UNK   900     121.939 -57.565-263.989  1.00  0.00    -0.305 OA
HETATM   13  C18 UNK   900     121.722 -56.921-265.122  1.00  0.00     0.101 C 
ENDROOT
BRANCH  10  14
HETATM   14  C9  UNK   900     123.994 -60.255-265.165  1.00  0.00     0.007 C 
HETATM   15  C10 UNK   900     125.262 -59.751-264.897  1.00  0.00     0.002 C 
HETATM   16  C11 UNK   900     126.100 -60.357-263.968  1.00  0.00     0.026 C 
HETATM   17  C12 UNK   900     125.726 -61.547-263.351  1.00  0.00     0.116 C 
HETATM   18  C13 UNK   900     124.738 -62.254-264.027  1.00  0.00     0.116 C 
HETATM   19  O4  UNK   900     126.002 -61.776-261.998  1.00  0.00    -0.326 OA
HETATM   20  C14 UNK   900     123.823 -61.598-264.844  1.00  0.00     0.026 C 
HETATM   21  O3  UNK   900     124.401 -63.489-263.465  1.00  0.00    -0.326 OA
HETATM   22  C15 UNK   900     125.156 -63.936-262.350  1.00  0.00     0.181 C 
HETATM   23  C16 UNK   900     125.256 -62.801-261.340  1.00  0.00     0.181 C 
ENDBRANCH  10  14
TORSDOF 1
ENDMDL
MODEL 3
REMARK VINA RESULT:      -5.3      5.899     10.963
REMARK  1 active torsions:
REMARK  status: ('A' for Active; 'I' for Inactive)
REMARK    1  A    between atoms: C8_10  and  C9_11 
ROOT
HETATM    1  C1  UNK   900     108.060 -65.895-241.907  1.00  0.00     0.035 C 
HETATM    2  C2  UNK   900     107.305 -66.442-243.066  1.00  0.00     0.026 C 
HETATM    3  C3  UNK   900     106.690 -65.536-243.913  1.00  0.00     0.129 C 
HETATM    4  O1  UNK   900     106.104 -64.391-243.387  1.00  0.00    -0.190 OA
HETATM    5  C4  UNK   900     106.415 -65.979-245.202  1.00  0.00     0.027 C 
HETATM    6  C5  UNK   900     106.463 -67.336-245.500  1.00  0.00     0.007 C 
HETATM    7  C6  UNK   900     106.937 -68.227-244.545  1.00  0.00     0.062 C 
HETATM    8  C7  UNK   900     107.290 -69.491-244.949  1.00  0.00     0.199 C 
HETATM    9  O2  UNK   900     107.209 -69.920-246.116  1.00  0.00    -0.286 OA
HETATM   10  C8  UNK   900     107.726 -70.362-243.965  1.00  0.00     0.064 C 
HETATM   11  C17 UNK   900     107.531 -69.934-242.657  1.00  0.00     0.126 C 
HETATM   12  O5  UNK   900     107.570 -68.663-242.313  1.00  0.00    -0.305 OA
HETATM   13  C18 UNK   900     107.294 -67.798-243.273  1.00  0.00     0.101 C 
ENDROOT
BRANCH  10  14
HETATM   14  C9  UNK   900     108.645 -71.467-244.269  1.00  0.00     0.007 C 
HETATM   15  C10 UNK   900     109.991 -71.239-244.533  1.00  0.00     0.002 C 
HETATM   16  C11 UNK   900     110.985 -72.015-243.950  1.00  0.00     0.026 C 
HETATM   17  C12 UNK   900     110.652 -73.111-243.158  1.00  0.00     0.116 C 
HETATM   18  C13 UNK   900     109.363 -73.590-243.362  1.00  0.00     0.116 C 
HETATM   19  O4  UNK   900     111.374 -73.408-241.996  1.00  0.00    -0.326 OA
HETATM   20  C14 UNK   900     108.352 -72.750-243.816  1.00  0.00     0.026 C 
HETATM   21  O3  UNK   900     109.034 -74.736-242.633  1.00  0.00    -0.326 OA
HETATM   22  C15 UNK   900     110.054 -75.343-241.856  1.00  0.00     0.181 C 
HETATM   23  C16 UNK   900     110.753 -74.265-241.038  1.00  0.00     0.181 C 
ENDBRANCH  10  14
TORSDOF 1
ENDMDL
MODEL 4
REMARK VINA RESULT:      -5.1     27.496     29.969
REMARK  1 active torsions:
REMARK  status: ('A' for Active; 'I' for Inactive)
REMARK    1  A    between atoms: C8_10  and  C9_11 
ROOT
HETATM    1  C1  UNK   900     121.698 -54.724-267.694  1.00  0.00     0.035 C 
HETATM    2  C2  UNK   900     122.310 -56.028-268.065  1.00  0.00     0.026 C 
HETATM    3  C3  UNK   900     123.127 -56.055-269.181  1.00  0.00     0.129 C 
HETATM    4  O1  UNK   900     122.804 -55.283-270.291  1.00  0.00    -0.190 OA
HETATM    5  C4  UNK   900     124.049 -57.094-269.250  1.00  0.00     0.027 C 
HETATM    6  C5  UNK   900     123.924 -58.197-268.415  1.00  0.00     0.007 C 
HETATM    7  C6  UNK   900     122.966 -58.184-267.408  1.00  0.00     0.062 C 
HETATM    8  C7  UNK   900     123.065 -59.109-266.397  1.00  0.00     0.199 C 
HETATM    9  O2  UNK   900     123.949 -59.983-266.311  1.00  0.00    -0.286 OA
HETATM   10  C8  UNK   900     122.075 -59.087-265.431  1.00  0.00     0.064 C 
HETATM   11  C17 UNK   900     120.972 -58.293-265.720  1.00  0.00     0.126 C 
HETATM   12  O5  UNK   900     121.061 -57.187-266.432  1.00  0.00    -0.305 OA
HETATM   13  C18 UNK   900     122.082 -57.121-267.267  1.00  0.00     0.101 C 
ENDROOT
BRANCH  10  14
HETATM   14  C9  UNK   900     122.326 -59.560-264.062  1.00  0.00     0.007 C 
HETATM   15  C10 UNK   900     122.004 -60.856-263.673  1.00  0.00     0.002 C 
HETATM   16  C11 UNK   900     122.893 -61.632-262.939  1.00  0.00     0.026 C 
HETATM   17  C12 UNK   900     124.095 -61.094-262.489  1.00  0.00     0.116 C 
HETATM   18  C13 UNK   900     124.117 -59.705-262.445  1.00  0.00     0.116 C 
HETATM   19  O4  UNK   900     125.273 -61.850-262.499  1.00  0.00    -0.326 OA
HETATM   20  C14 UNK   900     123.314 -58.951-263.294  1.00  0.00     0.026 C 
HETATM   21  O3  UNK   900     125.287 -59.145-261.924  1.00  0.00    -0.326 OA
HETATM   22  C15 UNK   900     126.269 -60.028-261.406  1.00  0.00     0.181 C 
HETATM   23  C16 UNK   900     126.509 -61.141-262.418  1.00  0.00     0.181 C 
ENDBRANCH  10  14
TORSDOF 1
ENDMDL
MODEL 5
REMARK VINA RESULT:      -5.0     29.845     32.606
REMARK  1 active torsions:
REMARK  status: ('A' for Active; 'I' for Inactive)
REMARK    1  A    between atoms: C8_10  and  C9_11 
ROOT
HETATM    1  C1  UNK   900     113.027 -48.164-262.097  1.00  0.00     0.035 C 
HETATM    2  C2  UNK   900     112.892 -48.399-263.559  1.00  0.00     0.026 C 
HETATM    3  C3  UNK   900     113.840 -47.826-264.389  1.00  0.00     0.129 C 
HETATM    4  O1  UNK   900     114.337 -46.562-264.096  1.00  0.00    -0.190 OA
HETATM    5  C4  UNK   900     114.006 -48.411-265.639  1.00  0.00     0.027 C 
HETATM    6  C5  UNK   900     113.055 -49.299-266.128  1.00  0.00     0.007 C 
HETATM    7  C6  UNK   900     112.021 -49.715-265.297  1.00  0.00     0.062 C 
HETATM    8  C7  UNK   900     111.293 -50.821-265.663  1.00  0.00     0.199 C 
HETATM    9  O2  UNK   900     111.475 -51.488-266.699  1.00  0.00    -0.286 OA
HETATM   10  C8  UNK   900     110.251 -51.185-264.828  1.00  0.00     0.064 C 
HETATM   11  C17 UNK   900     109.913 -50.258-263.850  1.00  0.00     0.126 C 
HETATM   12  O5  UNK   900     110.801 -49.460-263.293  1.00  0.00    -0.305 OA
HETATM   13  C18 UNK   900     111.878 -49.205-264.013  1.00  0.00     0.101 C 
ENDROOT
BRANCH  10  14
HETATM   14  C9  UNK   900     109.787 -52.577-264.741  1.00  0.00     0.007 C 
HETATM   15  C10 UNK   900     110.659 -53.614-264.430  1.00  0.00     0.002 C 
HETATM   16  C11 UNK   900     110.321 -54.590-263.499  1.00  0.00     0.026 C 
HETATM   17  C12 UNK   900     109.054 -54.608-262.925  1.00  0.00     0.116 C 
HETATM   18  C13 UNK   900     108.092 -53.906-263.643  1.00  0.00     0.116 C 
HETATM   19  O4  UNK   900     108.879 -54.925-261.572  1.00  0.00    -0.326 OA
HETATM   20  C14 UNK   900     108.449 -52.840-264.462  1.00  0.00     0.026 C 
HETATM   21  O3  UNK   900     106.796 -53.975-263.123  1.00  0.00    -0.326 OA
HETATM   22  C15 UNK   900     106.575 -54.818-262.004  1.00  0.00     0.181 C 
HETATM   23  C16 UNK   900     107.649 -54.537-260.961  1.00  0.00     0.181 C 
ENDBRANCH  10  14
TORSDOF 1
ENDMDL
MODEL 6
REMARK VINA RESULT:      -5.0     37.834     38.695
REMARK  1 active torsions:
REMARK  status: ('A' for Active; 'I' for Inactive)
REMARK    1  A    between atoms: C8_10  and  C9_11 
ROOT
HETATM    1  C1  UNK   900     119.375 -55.740-277.635  1.00  0.00     0.035 C 
HETATM    2  C2  UNK   900     119.446 -55.097-276.296  1.00  0.00     0.026 C 
HETATM    3  C3  UNK   900     120.702 -54.808-275.792  1.00  0.00     0.129 C 
HETATM    4  O1  UNK   900     121.753 -55.689-276.016  1.00  0.00    -0.190 OA
HETATM    5  C4  UNK   900     120.768 -53.815-274.821  1.00  0.00     0.027 C 
HETATM    6  C5  UNK   900     119.612 -53.385-274.181  1.00  0.00     0.007 C 
HETATM    7  C6  UNK   900     118.377 -53.840-274.626  1.00  0.00     0.062 C 
HETATM    8  C7  UNK   900     117.248 -53.171-274.221  1.00  0.00     0.199 C 
HETATM    9  O2  UNK   900     117.234 -52.181-273.465  1.00  0.00    -0.286 OA
HETATM   10  C8  UNK   900     116.034 -53.674-274.657  1.00  0.00     0.064 C 
HETATM   11  C17 UNK   900     116.084 -54.928-275.255  1.00  0.00     0.126 C 
HETATM   12  O5  UNK   900     117.124 -55.341-275.950  1.00  0.00    -0.305 OA
HETATM   13  C18 UNK   900     118.279 -54.774-275.650  1.00  0.00     0.101 C 
ENDROOT
BRANCH  10  14
HETATM   14  C9  UNK   900     114.856 -52.810-274.814  1.00  0.00     0.007 C 
HETATM   15  C10 UNK   900     114.704 -51.984-275.922  1.00  0.00     0.002 C 
HETATM   16  C11 UNK   900     113.498 -51.907-276.608  1.00  0.00     0.026 C 
HETATM   17  C12 UNK   900     112.376 -52.585-276.141  1.00  0.00     0.116 C 
HETATM   18  C13 UNK   900     112.442 -52.938-274.798  1.00  0.00     0.116 C 
HETATM   19  O4  UNK   900     111.490 -53.212-277.025  1.00  0.00    -0.326 OA
HETATM   20  C14 UNK   900     113.667 -53.145-274.173  1.00  0.00     0.026 C 
HETATM   21  O3  UNK   900     111.294 -53.552-274.288  1.00  0.00    -0.326 OA
HETATM   22  C15 UNK   900     110.165 -53.656-275.141  1.00  0.00     0.181 C 
HETATM   23  C16 UNK   900     110.618 -54.205-276.487  1.00  0.00     0.181 C 
ENDBRANCH  10  14
TORSDOF 1
ENDMDL
MODEL 7
REMARK VINA RESULT:      -4.9     16.512     18.921
REMARK  1 active torsions:
REMARK  status: ('A' for Active; 'I' for Inactive)
REMARK    1  A    between atoms: C8_10  and  C9_11 
ROOT
HETATM    1  C1  UNK   900     123.681 -64.262-255.827  1.00  0.00     0.035 C 
HETATM    2  C2  UNK   900     123.238 -64.142-257.241  1.00  0.00     0.026 C 
HETATM    3  C3  UNK   900     124.194 -63.804-258.184  1.00  0.00     0.129 C 
HETATM    4  O1  UNK   900     125.189 -62.890-257.857  1.00  0.00    -0.190 OA
HETATM    5  C4  UNK   900     123.918 -64.152-259.501  1.00  0.00     0.027 C 
HETATM    6  C5  UNK   900     122.630 -64.520-259.872  1.00  0.00     0.007 C 
HETATM    7  C6  UNK   900     121.659 -64.685-258.891  1.00  0.00     0.062 C 
HETATM    8  C7  UNK   900     120.507 -65.356-259.218  1.00  0.00     0.199 C 
HETATM    9  O2  UNK   900     120.246 -65.827-260.342  1.00  0.00    -0.286 OA
HETATM   10  C8  UNK   900     119.549 -65.472-258.226  1.00  0.00     0.064 C 
HETATM   11  C17 UNK   900     119.761 -64.695-257.093  1.00  0.00     0.126 C 
HETATM   12  O5  UNK   900     120.967 -64.400-256.652  1.00  0.00    -0.305 OA
HETATM   13  C18 UNK   900     121.931 -64.419-257.555  1.00  0.00     0.101 C 
ENDROOT
BRANCH  10  14
HETATM   14  C9  UNK   900     118.592 -66.587-258.207  1.00  0.00     0.007 C 
HETATM   15  C10 UNK   900     119.021 -67.910-258.207  1.00  0.00     0.002 C 
HETATM   16  C11 UNK   900     118.468 -68.850-257.346  1.00  0.00     0.026 C 
HETATM   17  C12 UNK   900     117.395 -68.512-256.527  1.00  0.00     0.116 C 
HETATM   18  C13 UNK   900     116.693 -67.386-256.943  1.00  0.00     0.116 C 
HETATM   19  O4  UNK   900     117.310 -68.990-255.214  1.00  0.00    -0.326 OA
HETATM   20  C14 UNK   900     117.316 -66.391-257.688  1.00  0.00     0.026 C 
HETATM   21  O3  UNK   900     115.566 -67.073-256.177  1.00  0.00    -0.326 OA
HETATM   22  C15 UNK   900     115.198 -67.970-255.142  1.00  0.00     0.181 C 
HETATM   23  C16 UNK   900     116.436 -68.302-254.319  1.00  0.00     0.181 C 
ENDBRANCH  10  14
TORSDOF 1
ENDMDL
MODEL 8
REMARK VINA RESULT:      -4.9      2.211      2.824
REMARK  1 active torsions:
REMARK  status: ('A' for Active; 'I' for Inactive)
REMARK    1  A    between atoms: C8_10  and  C9_11 
ROOT
HETATM    1  C1  UNK   900     116.398 -76.607-244.070  1.00  0.00     0.035 C 
HETATM    2  C2  UNK   900     115.220 -77.475-244.334  1.00  0.00     0.026 C 
HETATM    3  C3  UNK   900     115.462 -78.795-244.672  1.00  0.00     0.129 C 
HETATM    4  O1  UNK   900     116.548 -79.110-245.480  1.00  0.00    -0.190 OA
HETATM    5  C4  UNK   900     114.424 -79.693-244.450  1.00  0.00     0.027 C 
HETATM    6  C5  UNK   900     113.136 -79.229-244.212  1.00  0.00     0.007 C 
HETATM    7  C6  UNK   900     112.923 -77.866-244.044  1.00  0.00     0.062 C 
HETATM    8  C7  UNK   900     111.737 -77.452-243.489  1.00  0.00     0.199 C 
HETATM    9  O2  UNK   900     110.813 -78.207-243.129  1.00  0.00    -0.286 OA
HETATM   10  C8  UNK   900     111.547 -76.087-243.369  1.00  0.00     0.064 C 
HETATM   11  C17 UNK   900     112.470 -75.291-244.036  1.00  0.00     0.126 C 
HETATM   12  O5  UNK   900     113.727 -75.652-244.204  1.00  0.00    -0.305 OA
HETATM   13  C18 UNK   900     113.960 -76.952-244.183  1.00  0.00     0.101 C 
ENDROOT
BRANCH  10  14
HETATM   14  C9  UNK   900     110.674 -75.521-242.331  1.00  0.00     0.007 C 
HETATM   15  C10 UNK   900     111.122 -75.337-241.028  1.00  0.00     0.002 C 
HETATM   16  C11 UNK   900     110.881 -74.154-240.339  1.00  0.00     0.026 C 
HETATM   17  C12 UNK   900     110.094 -73.156-240.906  1.00  0.00     0.116 C 
HETATM   18  C13 UNK   900     109.266 -73.596-241.932  1.00  0.00     0.116 C 
HETATM   19  O4  UNK   900     110.421 -71.804-240.751  1.00  0.00    -0.326 OA
HETATM   20  C14 UNK   900     109.607 -74.706-242.698  1.00  0.00     0.026 C 
HETATM   21  O3  UNK   900     108.412 -72.626-242.464  1.00  0.00    -0.326 OA
HETATM   22  C15 UNK   900     108.399 -71.347-241.850  1.00  0.00     0.181 C 
HETATM   23  C16 UNK   900     109.836 -70.878-241.666  1.00  0.00     0.181 C 
ENDBRANCH  10  14
TORSDOF 1
ENDMDL
MODEL 9
REMARK VINA RESULT:      -4.8     11.041     12.262
REMARK  1 active torsions:
REMARK  status: ('A' for Active; 'I' for Inactive)
REMARK    1  A    between atoms: C8_10  and  C9_11 
ROOT
HETATM    1  C1  UNK   900     114.931 -66.183-247.787  1.00  0.00     0.035 C 
HETATM    2  C2  UNK   900     114.034 -66.594-248.900  1.00  0.00     0.026 C 
HETATM    3  C3  UNK   900     114.572 -67.400-249.889  1.00  0.00     0.129 C 
HETATM    4  O1  UNK   900     115.881 -67.196-250.307  1.00  0.00    -0.190 OA
HETATM    5  C4  UNK   900     113.672 -68.157-250.630  1.00  0.00     0.027 C 
HETATM    6  C5  UNK   900     112.313 -67.868-250.587  1.00  0.00     0.007 C 
HETATM    7  C6  UNK   900     111.846 -66.922-249.683  1.00  0.00     0.062 C 
HETATM    8  C7  UNK   900     110.499 -66.881-249.415  1.00  0.00     0.199 C 
HETATM    9  O2  UNK   900     109.643 -67.625-249.932  1.00  0.00    -0.286 OA
HETATM   10  C8  UNK   900     110.067 -65.904-248.535  1.00  0.00     0.064 C 
HETATM   11  C17 UNK   900     111.005 -64.932-248.210  1.00  0.00     0.126 C 
HETATM   12  O5  UNK   900     112.297 -65.185-248.148  1.00  0.00    -0.305 OA
HETATM   13  C18 UNK   900     112.718 -66.206-248.873  1.00  0.00     0.101 C 
ENDROOT
BRANCH  10  14
HETATM   14  C9  UNK   900     108.852 -66.081-247.728  1.00  0.00     0.007 C 
HETATM   15  C10 UNK   900     108.914 -66.527-246.412  1.00  0.00     0.002 C 
HETATM   16  C11 UNK   900     108.182 -65.911-245.404  1.00  0.00     0.026 C 
HETATM   17  C12 UNK   900     107.288 -64.889-245.705  1.00  0.00     0.116 C 
HETATM   18  C13 UNK   900     106.886 -64.856-247.035  1.00  0.00     0.116 C 
HETATM   19  O4  UNK   900     107.156 -63.774-244.867  1.00  0.00    -0.326 OA
HETATM   20  C14 UNK   900     107.706 -65.356-248.042  1.00  0.00     0.026 C 
HETATM   21  O3  UNK   900     105.930 -63.884-247.343  1.00  0.00    -0.326 OA
HETATM   22  C15 UNK   900     105.398 -63.116-246.275  1.00  0.00     0.181 C 
HETATM   23  C16 UNK   900     106.550 -62.606-245.419  1.00  0.00     0.181 C 
ENDBRANCH  10  14
TORSDOF 1
ENDMDL
