MODEL 1
REMARK VINA RESULT:      -8.2      0.000      0.000
REMARK  3 active torsions:
REMARK  status: ('A' for Active; 'I' for Inactive)
REMARK    1  A    between atoms: C2_2  and  C3_3 
REMARK    2  A    between atoms: C3_3  and  N1_4 
REMARK    3  A    between atoms: C6_7  and  C7_8 
REMARK       I    between atoms: C7_8  and  N2_10 
ROOT
HETATM    1  N1  UNK   900     -14.513 -11.356   3.994  1.00  0.00    -0.292 N 
HETATM    2  C4  UNK   900     -13.971 -12.118   5.081  1.00  0.00     0.079 C 
HETATM    3  C5  UNK   900     -14.460 -13.409   5.250  1.00  0.00     0.024 C 
HETATM    4  C6  UNK   900     -13.795 -14.291   6.095  1.00  0.00     0.057 C 
HETATM    5  C15 UNK   900     -12.655 -13.816   6.716  1.00  0.00     0.006 C 
HETATM    6  C16 UNK   900     -11.944 -12.717   6.244  1.00  0.00     0.019 C 
HETATM    7  C17 UNK   900     -12.689 -11.806   5.510  1.00  0.00     0.079 C 
HETATM    8  N3  UNK   900     -11.956 -10.849   4.778  1.00  0.00    -0.291 N 
HETATM    9  C18 UNK   900     -10.622 -10.397   4.806  1.00  0.00     0.238 C 
HETATM   10  O4  UNK   900      -9.660 -11.221   4.785  1.00  0.00    -0.272 OA
HETATM   11  C19 UNK   900     -10.523  -9.035   4.205  1.00  0.00     0.091 C 
HETATM   12  C20 UNK   900     -11.680  -9.134   3.214  1.00  0.00     0.042 C 
HETATM   13  C21 UNK   900     -12.789  -9.535   4.401  1.00  0.00     0.168 C 
HETATM   14  C22 UNK   900     -13.703 -10.379   3.326  1.00  0.00     0.258 C 
HETATM   15  O5  UNK   900     -14.257  -9.609   2.508  1.00  0.00    -0.270 OA
ENDROOT
BRANCH   4  16
HETATM   16  C7  UNK   900     -14.092 -15.713   6.114  1.00  0.00     0.257 C 
HETATM   17  O1  UNK   900     -13.454 -16.441   5.319  1.00  0.00    -0.267 OA
HETATM   18  N2  UNK   900     -14.931 -16.270   7.115  1.00  0.00    -0.316 N 
HETATM   19  C8  UNK   900     -15.834 -17.374   6.894  1.00  0.00     0.109 C 
HETATM   20  C12 UNK   900     -14.964 -15.580   8.396  1.00  0.00     0.109 C 
HETATM   21  C9  UNK   900     -15.932 -18.133   8.189  1.00  0.00     0.081 C 
HETATM   22  C10 UNK   900     -16.409 -17.301   9.340  1.00  0.00     0.191 C 
HETATM   23  C11 UNK   900     -16.291 -15.821   9.104  1.00  0.00     0.081 C 
HETATM   24  O2  UNK   900     -17.728 -17.624   9.591  1.00  0.00    -0.332 OA
HETATM   25  O3  UNK   900     -15.767 -17.730  10.487  1.00  0.00    -0.332 OA
HETATM   26  C13 UNK   900     -17.635 -18.987   9.888  1.00  0.00     0.177 C 
HETATM   27  C14 UNK   900     -16.321 -19.006  10.661  1.00  0.00     0.177 C 
ENDBRANCH   4  16
BRANCH   1  28
HETATM   28  C3  UNK   900     -15.939 -11.489   3.702  1.00  0.00     0.135 C 
BRANCH  28  29
HETATM   29  C2  UNK   900     -16.658 -10.644   4.743  1.00  0.00    -0.002 C 
HETATM   30  C1  UNK   900     -17.145 -10.940   5.089  1.00  0.00    -0.003 C 
ENDBRANCH  28  29
ENDBRANCH   1  28
TORSDOF 3
ENDMDL
MODEL 2
REMARK VINA RESULT:      -8.2      5.176      8.645
REMARK  3 active torsions:
REMARK  status: ('A' for Active; 'I' for Inactive)
REMARK    1  A    between atoms: C2_2  and  C3_3 
REMARK    2  A    between atoms: C3_3  and  N1_4 
REMARK    3  A    between atoms: C6_7  and  C7_8 
REMARK       I    between atoms: C7_8  and  N2_10 
ROOT
HETATM    1  N1  UNK   900     -11.936 -12.639   4.371  1.00  0.00    -0.292 N 
HETATM    2  C4  UNK   900     -11.493 -11.916   3.217  1.00  0.00     0.079 C 
HETATM    3  C5  UNK   900     -10.378 -12.414   2.551  1.00  0.00     0.024 C 
HETATM    4  C6  UNK   900     -10.061 -11.935   1.285  1.00  0.00     0.057 C 
HETATM    5  C15 UNK   900     -10.907 -10.979   0.753  1.00  0.00     0.006 C 
HETATM    6  C16 UNK   900     -12.209 -10.793   1.205  1.00  0.00     0.019 C 
HETATM    7  C17 UNK   900     -12.436 -11.176   2.518  1.00  0.00     0.079 C 
HETATM    8  N3  UNK   900     -13.786 -11.276   2.912  1.00  0.00    -0.291 N 
HETATM    9  C18 UNK   900     -15.007 -10.820   2.375  1.00  0.00     0.238 C 
HETATM   10  O4  UNK   900     -15.296 -11.027   1.160  1.00  0.00    -0.272 OA
HETATM   11  C19 UNK   900     -16.046 -10.741   3.443  1.00  0.00     0.091 C 
HETATM   12  C20 UNK   900     -15.538 -11.862   4.345  1.00  0.00     0.042 C 
HETATM   13  C21 UNK   900     -14.015 -11.183   4.494  1.00  0.00     0.168 C 
HETATM   14  C22 UNK   900     -13.329 -12.661   4.715  1.00  0.00     0.258 C 
HETATM   15  O5  UNK   900     -13.658 -13.146   5.823  1.00  0.00    -0.270 OA
ENDROOT
BRANCH   4  16
HETATM   16  C7  UNK   900      -9.080 -12.589   0.435  1.00  0.00     0.257 C 
HETATM   17  O1  UNK   900      -7.877 -12.291   0.616  1.00  0.00    -0.267 OA
HETATM   18  N2  UNK   900      -9.456 -13.650  -0.430  1.00  0.00    -0.316 N 
HETATM   19  C8  UNK   900      -8.868 -13.886  -1.727  1.00  0.00     0.109 C 
HETATM   20  C12 UNK   900     -10.601 -14.450  -0.021  1.00  0.00     0.109 C 
HETATM   21  C9  UNK   900      -8.912 -15.369  -1.970  1.00  0.00     0.081 C 
HETATM   22  C10 UNK   900     -10.293 -15.947  -1.920  1.00  0.00     0.191 C 
HETATM   23  C11 UNK   900     -11.294 -15.059  -1.234  1.00  0.00     0.081 C 
HETATM   24  O2  UNK   900     -10.708 -16.194  -3.214  1.00  0.00    -0.332 OA
HETATM   25  O3  UNK   900     -10.218 -17.217  -1.377  1.00  0.00    -0.332 OA
HETATM   26  C13 UNK   900      -9.739 -17.101  -3.653  1.00  0.00     0.177 C 
HETATM   27  C14 UNK   900      -9.532 -17.914  -2.380  1.00  0.00     0.177 C 
ENDBRANCH   4  16
BRANCH   1  28
HETATM   28  C3  UNK   900     -10.925 -13.206   5.261  1.00  0.00     0.135 C 
BRANCH  28  29
HETATM   29  C2  UNK   900     -10.358 -12.033   6.049  1.00  0.00    -0.002 C 
HETATM   30  C1  UNK   900      -9.760 -12.119   6.330  1.00  0.00    -0.003 C 
ENDBRANCH  28  29
ENDBRANCH   1  28
TORSDOF 3
ENDMDL
MODEL 3
REMARK VINA RESULT:      -7.1     17.511     22.872
REMARK  3 active torsions:
REMARK  status: ('A' for Active; 'I' for Inactive)
REMARK    1  A    between atoms: C2_2  and  C3_3 
REMARK    2  A    between atoms: C3_3  and  N1_4 
REMARK    3  A    between atoms: C6_7  and  C7_8 
REMARK       I    between atoms: C7_8  and  N2_10 
ROOT
HETATM    1  N1  UNK   900      -7.639   5.351   3.785  1.00  0.00    -0.292 N 
HETATM    2  C4  UNK   900      -8.448   5.767   4.893  1.00  0.00     0.079 C 
HETATM    3  C5  UNK   900      -8.651   7.134   5.046  1.00  0.00     0.024 C 
HETATM    4  C6  UNK   900      -9.634   7.590   5.917  1.00  0.00     0.057 C 
HETATM    5  C15 UNK   900     -10.372   6.626   6.580  1.00  0.00     0.006 C 
HETATM    6  C16 UNK   900     -10.467   5.312   6.133  1.00  0.00     0.019 C 
HETATM    7  C17 UNK   900      -9.396   4.873   5.369  1.00  0.00     0.079 C 
HETATM    8  N3  UNK   900      -9.588   3.667   4.664  1.00  0.00    -0.291 N 
HETATM    9  C18 UNK   900     -10.526   2.618   4.742  1.00  0.00     0.238 C 
HETATM   10  O4  UNK   900     -11.769   2.862   4.759  1.00  0.00    -0.272 OA
HETATM   11  C19 UNK   900      -9.963   1.373   4.142  1.00  0.00     0.091 C 
HETATM   12  C20 UNK   900      -9.038   2.011   3.108  1.00  0.00     0.042 C 
HETATM   13  C21 UNK   900      -8.230   2.926   4.254  1.00  0.00     0.168 C 
HETATM   14  C22 UNK   900      -7.887   4.091   3.146  1.00  0.00     0.258 C 
HETATM   15  O5  UNK   900      -7.054   3.679   2.306  1.00  0.00    -0.270 OA
ENDROOT
BRANCH   4  16
HETATM   16  C7  UNK   900     -10.075   8.975   5.928  1.00  0.00     0.257 C 
HETATM   17  O1  UNK   900     -11.078   9.261   5.234  1.00  0.00    -0.267 OA
HETATM   18  N2  UNK   900      -9.505   9.915   6.826  1.00  0.00    -0.316 N 
HETATM   19  C8  UNK   900      -9.294  11.309   6.515  1.00  0.00     0.109 C 
HETATM   20  C12 UNK   900      -8.984   9.387   8.078  1.00  0.00     0.109 C 
HETATM   21  C9  UNK   900      -9.427  12.075   7.802  1.00  0.00     0.081 C 
HETATM   22  C10 UNK   900      -8.470  11.635   8.867  1.00  0.00     0.191 C 
HETATM   23  C11 UNK   900      -7.873  10.278   8.618  1.00  0.00     0.081 C 
HETATM   24  O2  UNK   900      -7.460  12.573   8.956  1.00  0.00    -0.332 OA
HETATM   25  O3  UNK   900      -9.097  11.746  10.094  1.00  0.00    -0.332 OA
HETATM   26  C13 UNK   900      -8.175  13.727   9.290  1.00  0.00     0.177 C 
HETATM   27  C14 UNK   900      -9.225  13.136  10.223  1.00  0.00     0.177 C 
ENDBRANCH   4  16
BRANCH   1  28
HETATM   28  C3  UNK   900      -6.473   6.162   3.439  1.00  0.00     0.135 C 
BRANCH  28  29
HETATM   29  C2  UNK   900      -5.382   5.766   4.424  1.00  0.00    -0.002 C 
HETATM   30  C1  UNK   900      -4.752   5.879   4.238  1.00  0.00    -0.003 C 
ENDBRANCH  28  29
ENDBRANCH   1  28
TORSDOF 3
ENDMDL
MODEL 4
REMARK VINA RESULT:      -7.1     24.890     27.860
REMARK  3 active torsions:
REMARK  status: ('A' for Active; 'I' for Inactive)
REMARK    1  A    between atoms: C2_2  and  C3_3 
REMARK    2  A    between atoms: C3_3  and  N1_4 
REMARK    3  A    between atoms: C6_7  and  C7_8 
REMARK       I    between atoms: C7_8  and  N2_10 
ROOT
HETATM    1  N1  UNK   900     -21.064 -19.395 -17.656  1.00  0.00    -0.292 N 
HETATM    2  C4  UNK   900     -21.360 -18.023 -17.942  1.00  0.00     0.079 C 
HETATM    3  C5  UNK   900     -21.511 -17.677 -19.281  1.00  0.00     0.024 C 
HETATM    4  C6  UNK   900     -22.063 -16.446 -19.616  1.00  0.00     0.057 C 
HETATM    5  C15 UNK   900     -22.450 -15.633 -18.567  1.00  0.00     0.006 C 
HETATM    6  C16 UNK   900     -22.692 -16.120 -17.287  1.00  0.00     0.019 C 
HETATM    7  C17 UNK   900     -22.016 -17.288 -16.965  1.00  0.00     0.079 C 
HETATM    8  N3  UNK   900     -22.455 -17.962 -15.807  1.00  0.00    -0.291 N 
HETATM    9  C18 UNK   900     -23.260 -17.608 -14.706  1.00  0.00     0.238 C 
HETATM   10  O4  UNK   900     -24.393 -17.069 -14.880  1.00  0.00    -0.272 OA
HETATM   11  C19 UNK   900     -22.965 -18.494 -13.542  1.00  0.00     0.091 C 
HETATM   12  C20 UNK   900     -22.553 -19.751 -14.305  1.00  0.00     0.042 C 
HETATM   13  C21 UNK   900     -21.367 -18.950 -15.173  1.00  0.00     0.168 C 
HETATM   14  C22 UNK   900     -21.526 -19.991 -16.436  1.00  0.00     0.258 C 
HETATM   15  O5  UNK   900     -21.098 -21.130 -16.134  1.00  0.00    -0.270 OA
ENDROOT
BRANCH   4  16
HETATM   16  C7  UNK   900     -22.488 -16.133 -20.970  1.00  0.00     0.257 C 
HETATM   17  O1  UNK   900     -21.613 -16.169 -21.866  1.00  0.00    -0.267 OA
HETATM   18  N2  UNK   900     -23.863 -15.975 -21.286  1.00  0.00    -0.316 N 
HETATM   19  C8  UNK   900     -24.368 -15.044 -22.267  1.00  0.00     0.109 C 
HETATM   20  C12 UNK   900     -24.809 -16.710 -20.460  1.00  0.00     0.109 C 
HETATM   21  C9  UNK   900     -25.612 -15.651 -22.854  1.00  0.00     0.081 C 
HETATM   22  C10 UNK   900     -26.672 -15.955 -21.840  1.00  0.00     0.191 C 
HETATM   23  C11 UNK   900     -26.159 -16.002 -20.428  1.00  0.00     0.081 C 
HETATM   24  O2  UNK   900     -27.656 -14.992 -21.940  1.00  0.00    -0.332 OA
HETATM   25  O3  UNK   900     -27.332 -17.106 -22.226  1.00  0.00    -0.332 OA
HETATM   26  C13 UNK   900     -28.083 -15.160 -23.261  1.00  0.00     0.177 C 
HETATM   27  C14 UNK   900     -27.999 -16.677 -23.382  1.00  0.00     0.177 C 
ENDBRANCH   4  16
BRANCH   1  28
HETATM   28  C3  UNK   900     -20.156 -20.107 -18.553  1.00  0.00     0.135 C 
BRANCH  28  29
HETATM   29  C2  UNK   900     -18.757 -19.618 -18.203  1.00  0.00    -0.002 C 
HETATM   30  C1  UNK   900     -18.294 -20.084 -18.087  1.00  0.00    -0.003 C 
ENDBRANCH  28  29
ENDBRANCH   1  28
TORSDOF 3
ENDMDL
MODEL 5
REMARK VINA RESULT:      -7.1     34.762     37.625
REMARK  3 active torsions:
REMARK  status: ('A' for Active; 'I' for Inactive)
REMARK    1  A    between atoms: C2_2  and  C3_3 
REMARK    2  A    between atoms: C3_3  and  N1_4 
REMARK    3  A    between atoms: C6_7  and  C7_8 
REMARK       I    between atoms: C7_8  and  N2_10 
ROOT
HETATM    1  N1  UNK   900     -43.098  -5.355 -17.006  1.00  0.00    -0.292 N 
HETATM    2  C4  UNK   900     -43.725  -6.628 -16.803  1.00  0.00     0.079 C 
HETATM    3  C5  UNK   900     -43.878  -7.440 -17.921  1.00  0.00     0.024 C 
HETATM    4  C6  UNK   900     -44.219  -8.778 -17.758  1.00  0.00     0.057 C 
HETATM    5  C15 UNK   900     -44.374  -9.226 -16.459  1.00  0.00     0.006 C 
HETATM    6  C16 UNK   900     -43.828  -8.562 -15.365  1.00  0.00     0.019 C 
HETATM    7  C17 UNK   900     -43.624  -7.202 -15.544  1.00  0.00     0.079 C 
HETATM    8  N3  UNK   900     -42.814  -6.563 -14.583  1.00  0.00    -0.291 N 
HETATM    9  C18 UNK   900     -42.354  -6.905 -13.296  1.00  0.00     0.238 C 
HETATM   10  O4  UNK   900     -41.805  -8.026 -13.083  1.00  0.00    -0.272 OA
HETATM   11  C19 UNK   900     -41.988  -5.677 -12.532  1.00  0.00     0.091 C 
HETATM   12  C20 UNK   900     -41.568  -4.792 -13.703  1.00  0.00     0.042 C 
HETATM   13  C21 UNK   900     -43.030  -4.979 -14.495  1.00  0.00     0.168 C 
HETATM   14  C22 UNK   900     -42.315  -4.764 -15.960  1.00  0.00     0.258 C 
HETATM   15  O5  UNK   900     -41.934  -3.578 -16.102  1.00  0.00    -0.270 OA
ENDROOT
BRANCH   4  16
HETATM   16  C7  UNK   900     -44.136  -9.735 -18.849  1.00  0.00     0.257 C 
HETATM   17  O1  UNK   900     -45.149  -9.862 -19.575  1.00  0.00    -0.267 OA
HETATM   18  N2  UNK   900     -42.905 -10.356 -19.183  1.00  0.00    -0.316 N 
HETATM   19  C8  UNK   900     -42.785 -11.711 -19.667  1.00  0.00     0.109 C 
HETATM   20  C12 UNK   900     -41.694  -9.608 -18.880  1.00  0.00     0.109 C 
HETATM   21  C9  UNK   900     -41.591 -11.751 -20.581  1.00  0.00     0.081 C 
HETATM   22  C10 UNK   900     -40.314 -11.325 -19.924  1.00  0.00     0.191 C 
HETATM   23  C11 UNK   900     -40.520 -10.552 -18.651  1.00  0.00     0.081 C 
HETATM   24  O2  UNK   900     -39.565 -12.455 -19.661  1.00  0.00    -0.332 OA
HETATM   25  O3  UNK   900     -39.542 -10.658 -20.857  1.00  0.00    -0.332 OA
HETATM   26  C13 UNK   900     -39.384 -12.980 -20.944  1.00  0.00     0.177 C 
HETATM   27  C14 UNK   900     -39.208 -11.693 -21.741  1.00  0.00     0.177 C 
ENDBRANCH   4  16
BRANCH   1  28
HETATM   28  C3  UNK   900     -43.409  -4.620 -18.230  1.00  0.00     0.135 C 
BRANCH  28  29
HETATM   29  C2  UNK   900     -44.759  -3.959 -17.988  1.00  0.00    -0.002 C 
HETATM   30  C1  UNK   900     -44.968  -3.522 -18.446  1.00  0.00    -0.003 C 
ENDBRANCH  28  29
ENDBRANCH   1  28
TORSDOF 3
ENDMDL
MODEL 6
REMARK VINA RESULT:      -6.9      4.021      8.154
REMARK  3 active torsions:
REMARK  status: ('A' for Active; 'I' for Inactive)
REMARK    1  A    between atoms: C2_2  and  C3_3 
REMARK    2  A    between atoms: C3_3  and  N1_4 
REMARK    3  A    between atoms: C6_7  and  C7_8 
REMARK       I    between atoms: C7_8  and  N2_10 
ROOT
HETATM    1  N1  UNK   900     -13.431 -13.568   5.289  1.00  0.00    -0.292 N 
HETATM    2  C4  UNK   900     -12.376 -12.632   5.030  1.00  0.00     0.079 C 
HETATM    3  C5  UNK   900     -11.087 -13.146   4.938  1.00  0.00     0.024 C 
HETATM    4  C6  UNK   900     -10.067 -12.355   4.423  1.00  0.00     0.057 C 
HETATM    5  C15 UNK   900     -10.415 -11.081   4.012  1.00  0.00     0.006 C 
HETATM    6  C16 UNK   900     -11.724 -10.720   3.712  1.00  0.00     0.019 C 
HETATM    7  C17 UNK   900     -12.702 -11.466   4.352  1.00  0.00     0.079 C 
HETATM    8  N3  UNK   900     -14.014 -11.328   3.856  1.00  0.00    -0.291 N 
HETATM    9  C18 UNK   900     -14.658 -10.398   3.017  1.00  0.00     0.238 C 
HETATM   10  O4  UNK   900     -14.152 -10.074   1.902  1.00  0.00    -0.272 OA
HETATM   11  C19 UNK   900     -16.132 -10.422   3.250  1.00  0.00     0.091 C 
HETATM   12  C20 UNK   900     -16.277 -11.884   3.666  1.00  0.00     0.042 C 
HETATM   13  C21 UNK   900     -15.155 -11.744   4.900  1.00  0.00     0.168 C 
HETATM   14  C22 UNK   900     -14.747 -13.331   4.769  1.00  0.00     0.258 C 
HETATM   15  O5  UNK   900     -15.681 -14.068   5.162  1.00  0.00    -0.270 OA
ENDROOT
BRANCH   4  16
HETATM   16  C7  UNK   900      -8.772 -12.906   4.056  1.00  0.00     0.257 C 
HETATM   17  O1  UNK   900      -7.972 -13.152   4.988  1.00  0.00    -0.267 OA
HETATM   18  N2  UNK   900      -8.504 -13.316   2.724  1.00  0.00    -0.316 N 
HETATM   19  C8  UNK   900      -7.217 -13.194   2.082  1.00  0.00     0.109 C 
HETATM   20  C12 UNK   900      -9.646 -13.753   1.935  1.00  0.00     0.109 C 
HETATM   21  C9  UNK   900      -7.102 -14.330   1.103  1.00  0.00     0.081 C 
HETATM   22  C10 UNK   900      -8.190 -14.351   0.074  1.00  0.00     0.191 C 
HETATM   23  C11 UNK   900      -9.391 -13.530   0.449  1.00  0.00     0.081 C 
HETATM   24  O2  UNK   900      -7.668 -13.887  -1.118  1.00  0.00    -0.332 OA
HETATM   25  O3  UNK   900      -8.491 -15.669  -0.219  1.00  0.00    -0.332 OA
HETATM   26  C13 UNK   900      -6.650 -14.814  -1.362  1.00  0.00     0.177 C 
HETATM   27  C14 UNK   900      -7.322 -16.090  -0.867  1.00  0.00     0.177 C 
ENDBRANCH   4  16
BRANCH   1  28
HETATM   28  C3  UNK   900     -13.167 -14.666   6.217  1.00  0.00     0.135 C 
BRANCH  28  29
HETATM   29  C2  UNK   900     -13.419 -14.105   7.609  1.00  0.00    -0.002 C 
HETATM   30  C1  UNK   900     -13.420 -14.539   8.114  1.00  0.00    -0.003 C 
ENDBRANCH  28  29
ENDBRANCH   1  28
TORSDOF 3
ENDMDL
MODEL 7
REMARK VINA RESULT:      -6.9     28.831     31.659
REMARK  3 active torsions:
REMARK  status: ('A' for Active; 'I' for Inactive)
REMARK    1  A    between atoms: C2_2  and  C3_3 
REMARK    2  A    between atoms: C3_3  and  N1_4 
REMARK    3  A    between atoms: C6_7  and  C7_8 
REMARK       I    between atoms: C7_8  and  N2_10 
ROOT
HETATM    1  N1  UNK   900     -22.507 -16.914 -22.101  1.00  0.00    -0.292 N 
HETATM    2  C4  UNK   900     -23.834 -16.465 -21.800  1.00  0.00     0.079 C 
HETATM    3  C5  UNK   900     -24.872 -17.042 -22.523  1.00  0.00     0.024 C 
HETATM    4  C6  UNK   900     -26.186 -16.865 -22.103  1.00  0.00     0.057 C 
HETATM    5  C15 UNK   900     -26.374 -16.119 -20.954  1.00  0.00     0.006 C 
HETATM    6  C16 UNK   900     -25.365 -15.906 -20.021  1.00  0.00     0.019 C 
HETATM    7  C17 UNK   900     -24.075 -15.974 -20.525  1.00  0.00     0.079 C 
HETATM    8  N3  UNK   900     -23.039 -16.056 -19.573  1.00  0.00    -0.291 N 
HETATM    9  C18 UNK   900     -22.952 -15.817 -18.187  1.00  0.00     0.238 C 
HETATM   10  O4  UNK   900     -23.792 -16.328 -17.388  1.00  0.00    -0.272 OA
HETATM   11  C19 UNK   900     -21.538 -15.544 -17.795  1.00  0.00     0.091 C 
HETATM   12  C20 UNK   900     -20.836 -16.382 -18.860  1.00  0.00     0.042 C 
HETATM   13  C21 UNK   900     -21.607 -15.598 -20.122  1.00  0.00     0.168 C 
HETATM   14  C22 UNK   900     -21.505 -16.935 -21.074  1.00  0.00     0.258 C 
HETATM   15  O5  UNK   900     -20.318 -17.157 -21.409  1.00  0.00    -0.270 OA
ENDROOT
BRANCH   4  16
HETATM   16  C7  UNK   900     -27.284 -17.646 -22.649  1.00  0.00     0.257 C 
HETATM   17  O1  UNK   900     -27.670 -18.633 -21.981  1.00  0.00    -0.267 OA
HETATM   18  N2  UNK   900     -28.000 -17.199 -23.790  1.00  0.00    -0.316 N 
HETATM   19  C8  UNK   900     -28.546 -18.076 -24.798  1.00  0.00     0.109 C 
HETATM   20  C12 UNK   900     -28.054 -15.761 -24.004  1.00  0.00     0.109 C 
HETATM   21  C9  UNK   900     -29.781 -17.411 -25.340  1.00  0.00     0.081 C 
HETATM   22  C10 UNK   900     -29.530 -16.053 -25.921  1.00  0.00     0.191 C 
HETATM   23  C11 UNK   900     -28.228 -15.442 -25.483  1.00  0.00     0.081 C 
HETATM   24  O2  UNK   900     -29.549 -16.160 -27.298  1.00  0.00    -0.332 OA
HETATM   25  O3  UNK   900     -30.629 -15.255 -25.662  1.00  0.00    -0.332 OA
HETATM   26  C13 UNK   900     -30.844 -16.634 -27.527  1.00  0.00     0.177 C 
HETATM   27  C14 UNK   900     -31.610 -15.855 -26.464  1.00  0.00     0.177 C 
ENDBRANCH   4  16
BRANCH   1  28
HETATM   28  C3  UNK   900     -22.170 -17.188 -23.496  1.00  0.00     0.135 C 
BRANCH  28  29
HETATM   29  C2  UNK   900     -21.855 -15.837 -24.122  1.00  0.00    -0.002 C 
HETATM   30  C1  UNK   900     -21.808 -15.815 -24.787  1.00  0.00    -0.003 C 
ENDBRANCH  28  29
ENDBRANCH   1  28
TORSDOF 3
ENDMDL
MODEL 8
REMARK VINA RESULT:      -6.8      3.158      9.962
REMARK  3 active torsions:
REMARK  status: ('A' for Active; 'I' for Inactive)
REMARK    1  A    between atoms: C2_2  and  C3_3 
REMARK    2  A    between atoms: C3_3  and  N1_4 
REMARK    3  A    between atoms: C6_7  and  C7_8 
REMARK       I    between atoms: C7_8  and  N2_10 
ROOT
HETATM    1  N1  UNK   900     -16.580 -19.941  10.139  1.00  0.00    -0.292 N 
HETATM    2  C4  UNK   900     -16.747 -19.605   8.756  1.00  0.00     0.079 C 
HETATM    3  C5  UNK   900     -15.904 -18.627   8.240  1.00  0.00     0.024 C 
HETATM    4  C6  UNK   900     -15.820 -18.448   6.864  1.00  0.00     0.057 C 
HETATM    5  C15 UNK   900     -16.591 -19.287   6.080  1.00  0.00     0.006 C 
HETATM    6  C16 UNK   900     -17.089 -20.500   6.542  1.00  0.00     0.019 C 
HETATM    7  C17 UNK   900     -17.269 -20.577   7.915  1.00  0.00     0.079 C 
HETATM    8  N3  UNK   900     -17.487 -21.867   8.442  1.00  0.00    -0.291 N 
HETATM    9  C18 UNK   900     -17.843 -23.112   7.887  1.00  0.00     0.238 C 
HETATM   10  O4  UNK   900     -17.221 -23.574   6.885  1.00  0.00    -0.272 OA
HETATM   11  C19 UNK   900     -18.448 -23.991   8.930  1.00  0.00     0.091 C 
HETATM   12  C20 UNK   900     -17.706 -23.449  10.149  1.00  0.00     0.042 C 
HETATM   13  C21 UNK   900     -18.205 -21.875   9.873  1.00  0.00     0.168 C 
HETATM   14  C22 UNK   900     -16.856 -21.274  10.594  1.00  0.00     0.258 C 
HETATM   15  O5  UNK   900     -16.875 -21.486  11.829  1.00  0.00    -0.270 OA
ENDROOT
BRANCH   4  16
HETATM   16  C7  UNK   900     -14.779 -17.638   6.252  1.00  0.00     0.257 C 
HETATM   17  O1  UNK   900     -13.919 -18.237   5.567  1.00  0.00    -0.267 OA
HETATM   18  N2  UNK   900     -14.845 -16.221   6.281  1.00  0.00    -0.316 N 
HETATM   19  C8  UNK   900     -13.694 -15.357   6.385  1.00  0.00     0.109 C 
HETATM   20  C12 UNK   900     -16.175 -15.632   6.347  1.00  0.00     0.109 C 
HETATM   21  C9  UNK   900     -14.024 -14.088   5.650  1.00  0.00     0.081 C 
HETATM   22  C10 UNK   900     -15.241 -13.387   6.172  1.00  0.00     0.191 C 
HETATM   23  C11 UNK   900     -16.125 -14.263   7.014  1.00  0.00     0.081 C 
HETATM   24  O2  UNK   900     -14.828 -12.299   6.916  1.00  0.00    -0.332 OA
HETATM   25  O3  UNK   900     -15.898 -12.798   5.109  1.00  0.00    -0.332 OA
HETATM   26  C13 UNK   900     -14.122 -11.557   5.964  1.00  0.00     0.177 C 
HETATM   27  C14 UNK   900     -14.992 -11.796   4.735  1.00  0.00     0.177 C 
ENDBRANCH   4  16
BRANCH   1  28
HETATM   28  C3  UNK   900     -16.282 -18.864  11.081  1.00  0.00     0.135 C 
BRANCH  28  29
HETATM   29  C2  UNK   900     -17.611 -18.176  11.360  1.00  0.00    -0.002 C 
HETATM   30  C1  UNK   900     -17.689 -17.901  11.963  1.00  0.00    -0.003 C 
ENDBRANCH  28  29
ENDBRANCH   1  28
TORSDOF 3
ENDMDL
MODEL 9
REMARK VINA RESULT:      -6.2     28.837     31.689
REMARK  3 active torsions:
REMARK  status: ('A' for Active; 'I' for Inactive)
REMARK    1  A    between atoms: C2_2  and  C3_3 
REMARK    2  A    between atoms: C3_3  and  N1_4 
REMARK    3  A    between atoms: C6_7  and  C7_8 
REMARK       I    between atoms: C7_8  and  N2_10 
ROOT
HETATM    1  N1  UNK   900     -27.843 -17.852 -22.906  1.00  0.00    -0.292 N 
HETATM    2  C4  UNK   900     -27.080 -16.691 -22.552  1.00  0.00     0.079 C 
HETATM    3  C5  UNK   900     -26.165 -16.832 -21.515  1.00  0.00     0.024 C 
HETATM    4  C6  UNK   900     -25.208 -15.846 -21.303  1.00  0.00     0.057 C 
HETATM    5  C15 UNK   900     -25.223 -14.770 -22.171  1.00  0.00     0.006 C 
HETATM    6  C16 UNK   900     -25.829 -14.820 -23.421  1.00  0.00     0.019 C 
HETATM    7  C17 UNK   900     -26.862 -15.739 -23.537  1.00  0.00     0.079 C 
HETATM    8  N3  UNK   900     -27.297 -16.024 -24.847  1.00  0.00    -0.291 N 
HETATM    9  C18 UNK   900     -27.126 -15.402 -26.100  1.00  0.00     0.238 C 
HETATM   10  O4  UNK   900     -25.973 -15.067 -26.504  1.00  0.00    -0.272 OA
HETATM   11  C19 UNK   900     -28.214 -15.812 -27.035  1.00  0.00     0.091 C 
HETATM   12  C20 UNK   900     -28.490 -17.205 -26.474  1.00  0.00     0.042 C 
HETATM   13  C21 UNK   900     -28.776 -16.630 -24.929  1.00  0.00     0.168 C 
HETATM   14  C22 UNK   900     -28.271 -18.046 -24.261  1.00  0.00     0.258 C 
HETATM   15  O5  UNK   900     -29.084 -18.969 -24.500  1.00  0.00    -0.270 OA
ENDROOT
BRANCH   4  16
HETATM   16  C7  UNK   900     -24.071 -16.050 -20.420  1.00  0.00     0.257 C 
HETATM   17  O1  UNK   900     -24.307 -16.119 -19.192  1.00  0.00    -0.267 OA
HETATM   18  N2  UNK   900     -22.784 -16.340 -20.942  1.00  0.00    -0.316 N 
HETATM   19  C8  UNK   900     -21.548 -15.885 -20.352  1.00  0.00     0.109 C 
HETATM   20  C12 UNK   900     -22.741 -17.021 -22.228  1.00  0.00     0.109 C 
HETATM   21  C9  UNK   900     -20.505 -16.927 -20.650  1.00  0.00     0.081 C 
HETATM   22  C10 UNK   900     -20.311 -17.184 -22.113  1.00  0.00     0.191 C 
HETATM   23  C11 UNK   900     -21.448 -16.696 -22.967  1.00  0.00     0.081 C 
HETATM   24  O2  UNK   900     -19.140 -16.569 -22.510  1.00  0.00    -0.332 OA
HETATM   25  O3  UNK   900     -20.025 -18.526 -22.289  1.00  0.00    -0.332 OA
HETATM   26  C13 UNK   900     -18.196 -17.209 -21.701  1.00  0.00     0.177 C 
HETATM   27  C14 UNK   900     -18.759 -18.626 -21.696  1.00  0.00     0.177 C 
ENDBRANCH   4  16
BRANCH   1  28
HETATM   28  C3  UNK   900     -28.302 -18.730 -21.832  1.00  0.00     0.135 C 
BRANCH  28  29
HETATM   29  C2  UNK   900     -29.543 -18.067 -21.252  1.00  0.00    -0.002 C 
HETATM   30  C1  UNK   900     -29.971 -18.460 -20.924  1.00  0.00    -0.003 C 
ENDBRANCH  28  29
ENDBRANCH   1  28
TORSDOF 3
ENDMDL
