MODEL 1
REMARK VINA RESULT:      -6.4      0.000      0.000
REMARK  7 active torsions:
REMARK  status: ('A' for Active; 'I' for Inactive)
REMARK    1  A    between atoms: O1_1  and  C1_6 
REMARK    2  A    between atoms: O2_2  and  C3_8 
REMARK    3  A    between atoms: O3_3  and  C4_9 
REMARK    4  A    between atoms: O4_4  and  C11_16 
REMARK    5  A    between atoms: O5_5  and  C14_19 
REMARK    6  A    between atoms: C8_13  and  C11_16 
REMARK    7  A    between atoms: C11_16  and  C14_19 
ROOT
HETATM    1  C1  UNK   900     -14.334 -13.560   6.728  1.00  0.00     0.095 C 
HETATM    2  C2  UNK   900     -12.796 -13.755   6.697  1.00  0.00     0.057 C 
HETATM    3  C3  UNK   900     -14.789 -14.895   7.389  1.00  0.00     0.085 C 
HETATM    4  C4  UNK   900     -11.922 -12.784   5.866  1.00  0.00     0.061 C 
HETATM    5  C5  UNK   900     -14.999 -13.308   5.355  1.00  0.00     0.049 C 
HETATM    6  C6  UNK   900     -12.604 -15.255   6.383  1.00  0.00     0.014 C 
HETATM    7  C7  UNK   900     -13.942 -15.947   6.672  1.00  0.00     0.041 C 
HETATM    8  C8  UNK   900     -14.669 -11.942   4.728  1.00  0.00     0.025 C 
HETATM    9  C9  UNK   900     -12.221 -12.789   4.355  1.00  0.00     0.038 C 
HETATM   10  C10 UNK   900     -13.400 -11.948   3.870  1.00  0.00     0.011 C 
HETATM   11  C12 UNK   900     -16.278 -15.217   7.349  1.00  0.00     0.049 C 
HETATM   12  C13 UNK   900     -10.435 -13.132   6.078  1.00  0.00     0.046 C 
ENDROOT
BRANCH   8  13
HETATM   13  C11 UNK   900     -15.845 -11.454   3.867  1.00  0.00     0.079 C 
HETATM   14  C15 UNK   900     -16.932 -10.854   4.757  1.00  0.00     0.048 C 
BRANCH  13  15
HETATM   15  O4  UNK   900     -16.407 -12.589   3.209  1.00  0.00    -0.388 OA
HETATM   16  H27 UNK   900     -15.864 -12.777   2.424  1.00  0.00     0.210 HD
ENDBRANCH  13  15
BRANCH  13  17
HETATM   17  C14 UNK   900     -15.348 -10.461   2.812  1.00  0.00     0.201 C 
BRANCH  17  18
HETATM   18  O5  UNK   900     -15.755 -10.881   1.513  1.00  0.00    -0.398 OA
HETATM   19  H28 UNK   900     -14.989 -10.776   0.924  1.00  0.00     0.209 HD
ENDBRANCH  17  18
ENDBRANCH  13  17
ENDBRANCH   8  13
BRANCH   1  20
HETATM   20  O1  UNK   900     -14.658 -12.474   7.598  1.00  0.00    -0.386 OA
HETATM   21  H19 UNK   900     -14.610 -11.653   7.080  1.00  0.00     0.210 HD
ENDBRANCH   1  20
BRANCH   3  22
HETATM   22  O2  UNK   900     -14.394 -14.909   8.770  1.00  0.00    -0.387 OA
HETATM   23  H20 UNK   900     -15.199 -14.900   9.316  1.00  0.00     0.210 HD
ENDBRANCH   3  22
BRANCH   4  24
HETATM   24  O3  UNK   900     -12.104 -11.463   6.387  1.00  0.00    -0.390 OA
HETATM   25  H21 UNK   900     -12.721 -10.991   5.803  1.00  0.00     0.210 HD
ENDBRANCH   4  24
TORSDOF 7
ENDMDL
MODEL 2
REMARK VINA RESULT:      -6.3      1.688      2.571
REMARK  7 active torsions:
REMARK  status: ('A' for Active; 'I' for Inactive)
REMARK    1  A    between atoms: O1_1  and  C1_6 
REMARK    2  A    between atoms: O2_2  and  C3_8 
REMARK    3  A    between atoms: O3_3  and  C4_9 
REMARK    4  A    between atoms: O4_4  and  C11_16 
REMARK    5  A    between atoms: O5_5  and  C14_19 
REMARK    6  A    between atoms: C8_13  and  C11_16 
REMARK    7  A    between atoms: C11_16  and  C14_19 
ROOT
HETATM    1  C1  UNK   900     -14.384 -11.865   5.843  1.00  0.00     0.095 C 
HETATM    2  C2  UNK   900     -13.381 -12.965   6.277  1.00  0.00     0.057 C 
HETATM    3  C3  UNK   900     -15.706 -12.408   6.462  1.00  0.00     0.085 C 
HETATM    4  C4  UNK   900     -11.965 -12.995   5.650  1.00  0.00     0.061 C 
HETATM    5  C5  UNK   900     -14.484 -11.620   4.320  1.00  0.00     0.049 C 
HETATM    6  C6  UNK   900     -14.183 -14.281   6.167  1.00  0.00     0.014 C 
HETATM    7  C7  UNK   900     -15.667 -13.897   6.118  1.00  0.00     0.041 C 
HETATM    8  C8  UNK   900     -13.238 -10.968   3.695  1.00  0.00     0.025 C 
HETATM    9  C9  UNK   900     -11.946 -13.203   4.124  1.00  0.00     0.038 C 
HETATM   10  C10 UNK   900     -12.175 -11.975   3.245  1.00  0.00     0.011 C 
HETATM   11  C12 UNK   900     -17.003 -11.740   6.021  1.00  0.00     0.049 C 
HETATM   12  C13 UNK   900     -11.140 -14.116   6.313  1.00  0.00     0.046 C 
ENDROOT
BRANCH   8  13
HETATM   13  C11 UNK   900     -13.638 -10.101   2.491  1.00  0.00     0.079 C 
HETATM   14  C15 UNK   900     -13.025 -10.666   1.211  1.00  0.00     0.048 C 
BRANCH  13  15
HETATM   15  O4  UNK   900     -13.094  -8.797   2.689  1.00  0.00    -0.388 OA
HETATM   16  H27 UNK   900     -12.297  -8.718   2.137  1.00  0.00     0.210 HD
ENDBRANCH  13  15
BRANCH  13  17
HETATM   17  C14 UNK   900     -15.164  -9.995   2.403  1.00  0.00     0.201 C 
BRANCH  17  18
HETATM   18  O5  UNK   900     -15.536  -8.769   1.784  1.00  0.00    -0.398 OA
HETATM   19  H28 UNK   900     -15.605  -8.938   0.830  1.00  0.00     0.209 HD
ENDBRANCH  17  18
ENDBRANCH  13  17
ENDBRANCH   8  13
BRANCH   1  20
HETATM   20  O1  UNK   900     -14.041 -10.633   6.481  1.00  0.00    -0.386 OA
HETATM   21  H19 UNK   900     -14.847 -10.276   6.892  1.00  0.00     0.210 HD
ENDBRANCH   1  20
BRANCH   3  22
HETATM   22  O2  UNK   900     -15.647 -12.306   7.893  1.00  0.00    -0.387 OA
HETATM   23  H20 UNK   900     -14.965 -12.922   8.213  1.00  0.00     0.210 HD
ENDBRANCH   3  22
BRANCH   4  24
HETATM   24  O3  UNK   900     -11.308 -11.766   5.975  1.00  0.00    -0.390 OA
HETATM   25  H21 UNK   900     -11.616 -11.482   6.852  1.00  0.00     0.210 HD
ENDBRANCH   4  24
TORSDOF 7
ENDMDL
MODEL 3
REMARK VINA RESULT:      -6.3      2.319      4.876
REMARK  7 active torsions:
REMARK  status: ('A' for Active; 'I' for Inactive)
REMARK    1  A    between atoms: O1_1  and  C1_6 
REMARK    2  A    between atoms: O2_2  and  C3_8 
REMARK    3  A    between atoms: O3_3  and  C4_9 
REMARK    4  A    between atoms: O4_4  and  C11_16 
REMARK    5  A    between atoms: O5_5  and  C14_19 
REMARK    6  A    between atoms: C8_13  and  C11_16 
REMARK    7  A    between atoms: C11_16  and  C14_19 
ROOT
HETATM    1  C1  UNK   900     -14.287 -12.105   4.825  1.00  0.00     0.095 C 
HETATM    2  C2  UNK   900     -15.128 -11.741   3.575  1.00  0.00     0.057 C 
HETATM    3  C3  UNK   900     -15.411 -12.463   5.844  1.00  0.00     0.085 C 
HETATM    4  C4  UNK   900     -14.442 -11.048   2.371  1.00  0.00     0.061 C 
HETATM    5  C5  UNK   900     -13.340 -10.995   5.335  1.00  0.00     0.049 C 
HETATM    6  C6  UNK   900     -16.366 -11.012   4.142  1.00  0.00     0.014 C 
HETATM    7  C7  UNK   900     -16.438 -11.351   5.636  1.00  0.00     0.041 C 
HETATM    8  C8  UNK   900     -12.146 -10.700   4.409  1.00  0.00     0.025 C 
HETATM    9  C9  UNK   900     -13.830  -9.672   2.690  1.00  0.00     0.038 C 
HETATM   10  C10 UNK   900     -12.444  -9.652   3.333  1.00  0.00     0.011 C 
HETATM   11  C12 UNK   900     -15.000 -12.615   7.304  1.00  0.00     0.049 C 
HETATM   12  C13 UNK   900     -15.466 -10.883   1.230  1.00  0.00     0.046 C 
ENDROOT
BRANCH   8  13
HETATM   13  C11 UNK   900     -10.937 -10.232   5.234  1.00  0.00     0.079 C 
HETATM   14  C15 UNK   900     -10.441 -11.366   6.128  1.00  0.00     0.048 C 
BRANCH  13  15
HETATM   15  O4  UNK   900     -11.371  -9.171   6.085  1.00  0.00    -0.388 OA
HETATM   16  H27 UNK   900     -11.295  -8.339   5.588  1.00  0.00     0.210 HD
ENDBRANCH  13  15
BRANCH  13  17
HETATM   17  C14 UNK   900      -9.839  -9.705   4.305  1.00  0.00     0.201 C 
BRANCH  17  18
HETATM   18  O5  UNK   900      -9.465  -8.385   4.685  1.00  0.00    -0.398 OA
HETATM   19  H28 UNK   900      -8.620  -8.188   4.246  1.00  0.00     0.209 HD
ENDBRANCH  17  18
ENDBRANCH  13  17
ENDBRANCH   8  13
BRANCH   1  20
HETATM   20  O1  UNK   900     -13.514 -13.275   4.553  1.00  0.00    -0.386 OA
HETATM   21  H19 UNK   900     -13.128 -13.580   5.391  1.00  0.00     0.210 HD
ENDBRANCH   1  20
BRANCH   3  22
HETATM   22  O2  UNK   900     -16.040 -13.693   5.455  1.00  0.00    -0.387 OA
HETATM   23  H20 UNK   900     -15.351 -14.296   5.127  1.00  0.00     0.210 HD
ENDBRANCH   3  22
BRANCH   4  24
HETATM   24  O3  UNK   900     -13.425 -11.924   1.873  1.00  0.00    -0.390 OA
HETATM   25  H21 UNK   900     -12.592 -11.424   1.830  1.00  0.00     0.210 HD
ENDBRANCH   4  24
TORSDOF 7
ENDMDL
MODEL 4
REMARK VINA RESULT:      -6.2      2.852      5.813
REMARK  7 active torsions:
REMARK  status: ('A' for Active; 'I' for Inactive)
REMARK    1  A    between atoms: O1_1  and  C1_6 
REMARK    2  A    between atoms: O2_2  and  C3_8 
REMARK    3  A    between atoms: O3_3  and  C4_9 
REMARK    4  A    between atoms: O4_4  and  C11_16 
REMARK    5  A    between atoms: O5_5  and  C14_19 
REMARK    6  A    between atoms: C8_13  and  C11_16 
REMARK    7  A    between atoms: C11_16  and  C14_19 
ROOT
HETATM    1  C1  UNK   900     -13.715 -10.110   2.767  1.00  0.00     0.095 C 
HETATM    2  C2  UNK   900     -14.515 -10.527   4.027  1.00  0.00     0.057 C 
HETATM    3  C3  UNK   900     -14.863  -9.952   1.725  1.00  0.00     0.085 C 
HETATM    4  C4  UNK   900     -13.758 -11.066   5.266  1.00  0.00     0.061 C 
HETATM    5  C5  UNK   900     -12.621 -11.105   2.315  1.00  0.00     0.049 C 
HETATM    6  C6  UNK   900     -15.638 -11.440   3.487  1.00  0.00     0.014 C 
HETATM    7  C7  UNK   900     -15.735 -11.182   1.978  1.00  0.00     0.041 C 
HETATM    8  C8  UNK   900     -11.410 -11.194   3.261  1.00  0.00     0.025 C 
HETATM    9  C9  UNK   900     -12.963 -12.360   5.016  1.00  0.00     0.038 C 
HETATM   10  C10 UNK   900     -11.579 -12.223   4.383  1.00  0.00     0.011 C 
HETATM   11  C12 UNK   900     -14.458  -9.812   0.263  1.00  0.00     0.049 C 
HETATM   12  C13 UNK   900     -14.765 -11.316   6.407  1.00  0.00     0.046 C 
ENDROOT
BRANCH   8  13
HETATM   13  C11 UNK   900     -10.139 -11.533   2.467  1.00  0.00     0.079 C 
HETATM   14  C15 UNK   900     -10.098 -13.028   2.157  1.00  0.00     0.048 C 
BRANCH  13  15
HETATM   15  O4  UNK   900      -9.014 -11.234   3.293  1.00  0.00    -0.388 OA
HETATM   16  H27 UNK   900      -8.608 -10.415   2.959  1.00  0.00     0.210 HD
ENDBRANCH  13  15
BRANCH  13  17
HETATM   17  C14 UNK   900     -10.067 -10.677   1.199  1.00  0.00     0.201 C 
BRANCH  17  18
HETATM   18  O5  UNK   900      -9.834  -9.314   1.539  1.00  0.00    -0.398 OA
HETATM   19  H28 UNK   900      -9.583  -8.853   0.721  1.00  0.00     0.209 HD
ENDBRANCH  17  18
ENDBRANCH  13  17
ENDBRANCH   8  13
BRANCH   1  20
HETATM   20  O1  UNK   900     -13.109  -8.835   2.990  1.00  0.00    -0.386 OA
HETATM   21  H19 UNK   900     -12.215  -8.987   3.339  1.00  0.00     0.210 HD
ENDBRANCH   1  20
BRANCH   3  22
HETATM   22  O2  UNK   900     -15.657  -8.801   2.053  1.00  0.00    -0.387 OA
HETATM   23  H20 UNK   900     -15.929  -8.374   1.222  1.00  0.00     0.210 HD
ENDBRANCH   3  22
BRANCH   4  24
HETATM   24  O3  UNK   900     -12.873 -10.040   5.729  1.00  0.00    -0.390 OA
HETATM   25  H21 UNK   900     -12.966  -9.273   5.139  1.00  0.00     0.210 HD
ENDBRANCH   4  24
TORSDOF 7
ENDMDL
MODEL 5
REMARK VINA RESULT:      -6.1      1.605      4.934
REMARK  7 active torsions:
REMARK  status: ('A' for Active; 'I' for Inactive)
REMARK    1  A    between atoms: O1_1  and  C1_6 
REMARK    2  A    between atoms: O2_2  and  C3_8 
REMARK    3  A    between atoms: O3_3  and  C4_9 
REMARK    4  A    between atoms: O4_4  and  C11_16 
REMARK    5  A    between atoms: O5_5  and  C14_19 
REMARK    6  A    between atoms: C8_13  and  C11_16 
REMARK    7  A    between atoms: C11_16  and  C14_19 
ROOT
HETATM    1  C1  UNK   900     -15.094 -12.760   3.923  1.00  0.00     0.095 C 
HETATM    2  C2  UNK   900     -13.731 -12.898   3.199  1.00  0.00     0.057 C 
HETATM    3  C3  UNK   900     -15.515 -11.323   3.492  1.00  0.00     0.085 C 
HETATM    4  C4  UNK   900     -12.794 -14.078   3.557  1.00  0.00     0.061 C 
HETATM    5  C5  UNK   900     -15.052 -12.942   5.458  1.00  0.00     0.049 C 
HETATM    6  C6  UNK   900     -13.096 -11.493   3.300  1.00  0.00     0.014 C 
HETATM    7  C7  UNK   900     -14.225 -10.518   3.654  1.00  0.00     0.041 C 
HETATM    8  C8  UNK   900     -14.761 -14.381   5.921  1.00  0.00     0.025 C 
HETATM    9  C9  UNK   900     -12.320 -14.095   5.022  1.00  0.00     0.038 C 
HETATM   10  C10 UNK   900     -13.268 -14.693   6.060  1.00  0.00     0.011 C 
HETATM   11  C12 UNK   900     -16.693 -10.696   4.227  1.00  0.00     0.049 C 
HETATM   12  C13 UNK   900     -11.557 -14.042   2.637  1.00  0.00     0.046 C 
ENDROOT
BRANCH   8  13
HETATM   13  C11 UNK   900     -15.450 -14.657   7.266  1.00  0.00     0.079 C 
HETATM   14  C15 UNK   900     -16.237 -13.427   7.714  1.00  0.00     0.048 C 
BRANCH  13  15
HETATM   15  O4  UNK   900     -14.433 -14.894   8.239  1.00  0.00    -0.388 OA
HETATM   16  H27 UNK   900     -13.609 -14.493   7.915  1.00  0.00     0.210 HD
ENDBRANCH  13  15
BRANCH  13  17
HETATM   17  C14 UNK   900     -16.336 -15.902   7.159  1.00  0.00     0.201 C 
BRANCH  17  18
HETATM   18  O5  UNK   900     -17.436 -15.801   8.056  1.00  0.00    -0.398 OA
HETATM   19  H28 UNK   900     -17.142 -16.152   8.913  1.00  0.00     0.209 HD
ENDBRANCH  17  18
ENDBRANCH  13  17
ENDBRANCH   8  13
BRANCH   1  20
HETATM   20  O1  UNK   900     -16.019 -13.701   3.377  1.00  0.00    -0.386 OA
HETATM   21  H19 UNK   900     -16.795 -13.730   3.961  1.00  0.00     0.210 HD
ENDBRANCH   1  20
BRANCH   3  22
HETATM   22  O2  UNK   900     -15.840 -11.315   2.094  1.00  0.00    -0.387 OA
HETATM   23  H20 UNK   900     -16.258 -12.165   1.874  1.00  0.00     0.210 HD
ENDBRANCH   3  22
BRANCH   4  24
HETATM   24  O3  UNK   900     -13.480 -15.299   3.260  1.00  0.00    -0.390 OA
HETATM   25  H21 UNK   900     -13.569 -15.803   4.086  1.00  0.00     0.210 HD
ENDBRANCH   4  24
TORSDOF 7
ENDMDL
MODEL 6
REMARK VINA RESULT:      -6.1     37.763     39.620
REMARK  7 active torsions:
REMARK  status: ('A' for Active; 'I' for Inactive)
REMARK    1  A    between atoms: O1_1  and  C1_6 
REMARK    2  A    between atoms: O2_2  and  C3_8 
REMARK    3  A    between atoms: O3_3  and  C4_9 
REMARK    4  A    between atoms: O4_4  and  C11_16 
REMARK    5  A    between atoms: O5_5  and  C14_19 
REMARK    6  A    between atoms: C8_13  and  C11_16 
REMARK    7  A    between atoms: C11_16  and  C14_19 
ROOT
HETATM    1  C1  UNK   900     -12.187  18.519 -18.202  1.00  0.00     0.095 C 
HETATM    2  C2  UNK   900     -11.072  18.574 -17.127  1.00  0.00     0.057 C 
HETATM    3  C3  UNK   900     -11.345  18.617 -19.509  1.00  0.00     0.085 C 
HETATM    4  C4  UNK   900     -11.455  18.784 -15.641  1.00  0.00     0.061 C 
HETATM    5  C5  UNK   900     -13.268  19.619 -18.095  1.00  0.00     0.049 C 
HETATM    6  C6  UNK   900     -10.040  19.575 -17.693  1.00  0.00     0.014 C 
HETATM    7  C7  UNK   900     -10.335  19.720 -19.191  1.00  0.00     0.041 C 
HETATM    8  C8  UNK   900     -14.200  19.480 -16.878  1.00  0.00     0.025 C 
HETATM    9  C9  UNK   900     -12.173  20.115 -15.349  1.00  0.00     0.038 C 
HETATM   10  C10 UNK   900     -13.676  20.176 -15.618  1.00  0.00     0.011 C 
HETATM   11  C12 UNK   900     -12.104  18.874 -20.805  1.00  0.00     0.049 C 
HETATM   12  C13 UNK   900     -10.184  18.706 -14.772  1.00  0.00     0.046 C 
ENDROOT
BRANCH   8  13
HETATM   13  C11 UNK   900     -15.592  20.041 -17.208  1.00  0.00     0.079 C 
HETATM   14  C15 UNK   900     -15.519  20.929 -18.448  1.00  0.00     0.048 C 
BRANCH  13  15
HETATM   15  O4  UNK   900     -16.005  20.861 -16.115  1.00  0.00    -0.388 OA
HETATM   16  H27 UNK   900     -16.977  20.904 -16.124  1.00  0.00     0.210 HD
ENDBRANCH  13  15
BRANCH  13  17
HETATM   17  C14 UNK   900     -16.595  18.895 -17.376  1.00  0.00     0.201 C 
BRANCH  17  18
HETATM   18  O5  UNK   900     -15.913  17.646 -17.405  1.00  0.00    -0.398 OA
HETATM   19  H28 UNK   900     -16.589  16.948 -17.365  1.00  0.00     0.209 HD
ENDBRANCH  17  18
ENDBRANCH  13  17
ENDBRANCH   8  13
BRANCH   1  20
HETATM   20  O1  UNK   900     -12.828  17.243 -18.155  1.00  0.00    -0.386 OA
HETATM   21  H19 UNK   900     -13.279  17.167 -17.297  1.00  0.00     0.210 HD
ENDBRANCH   1  20
BRANCH   3  22
HETATM   22  O2  UNK   900     -10.597  17.405 -19.693  1.00  0.00    -0.387 OA
HETATM   23  H20 UNK   900     -10.952  16.946 -20.474  1.00  0.00     0.210 HD
ENDBRANCH   3  22
BRANCH   4  24
HETATM   24  O3  UNK   900     -12.286  17.691 -15.236  1.00  0.00    -0.390 OA
HETATM   25  H21 UNK   900     -12.873  18.004 -14.528  1.00  0.00     0.210 HD
ENDBRANCH   4  24
TORSDOF 7
ENDMDL
MODEL 7
REMARK VINA RESULT:      -5.8      1.996      4.068
REMARK  7 active torsions:
REMARK  status: ('A' for Active; 'I' for Inactive)
REMARK    1  A    between atoms: O1_1  and  C1_6 
REMARK    2  A    between atoms: O2_2  and  C3_8 
REMARK    3  A    between atoms: O3_3  and  C4_9 
REMARK    4  A    between atoms: O4_4  and  C11_16 
REMARK    5  A    between atoms: O5_5  and  C14_19 
REMARK    6  A    between atoms: C8_13  and  C11_16 
REMARK    7  A    between atoms: C11_16  and  C14_19 
ROOT
HETATM    1  C1  UNK   900     -14.287 -13.808   5.034  1.00  0.00     0.095 C 
HETATM    2  C2  UNK   900     -15.408 -12.803   5.401  1.00  0.00     0.057 C 
HETATM    3  C3  UNK   900     -13.967 -14.419   6.431  1.00  0.00     0.085 C 
HETATM    4  C4  UNK   900     -15.859 -11.750   4.358  1.00  0.00     0.061 C 
HETATM    5  C5  UNK   900     -13.047 -13.197   4.343  1.00  0.00     0.049 C 
HETATM    6  C6  UNK   900     -14.983 -12.236   6.774  1.00  0.00     0.014 C 
HETATM    7  C7  UNK   900     -13.933 -13.196   7.347  1.00  0.00     0.041 C 
HETATM    8  C8  UNK   900     -13.298 -12.694   2.909  1.00  0.00     0.025 C 
HETATM    9  C9  UNK   900     -14.755 -10.770   3.921  1.00  0.00     0.038 C 
HETATM   10  C10 UNK   900     -13.783 -11.243   2.842  1.00  0.00     0.011 C 
HETATM   11  C12 UNK   900     -12.707 -15.269   6.543  1.00  0.00     0.049 C 
HETATM   12  C13 UNK   900     -17.041 -10.942   4.931  1.00  0.00     0.046 C 
ENDROOT
BRANCH   8  13
HETATM   13  C11 UNK   900     -12.020 -12.828   2.067  1.00  0.00     0.079 C 
HETATM   14  C15 UNK   900     -10.807 -12.995   2.979  1.00  0.00     0.048 C 
BRANCH  13  15
HETATM   15  O4  UNK   900     -11.846 -11.612   1.339  1.00  0.00    -0.388 OA
HETATM   16  H27 UNK   900     -11.584 -11.843   0.431  1.00  0.00     0.210 HD
ENDBRANCH  13  15
BRANCH  13  17
HETATM   17  C14 UNK   900     -12.162 -13.986   1.075  1.00  0.00     0.201 C 
BRANCH  17  18
HETATM   18  O5  UNK   900     -13.190 -14.874   1.500  1.00  0.00    -0.398 OA
HETATM   19  H28 UNK   900     -14.031 -14.391   1.438  1.00  0.00     0.209 HD
ENDBRANCH  17  18
ENDBRANCH  13  17
ENDBRANCH   8  13
BRANCH   1  20
HETATM   20  O1  UNK   900     -14.823 -14.829   4.190  1.00  0.00    -0.386 OA
HETATM   21  H19 UNK   900     -15.793 -14.771   4.230  1.00  0.00     0.210 HD
ENDBRANCH   1  20
BRANCH   3  22
HETATM   22  O2  UNK   900     -15.065 -15.237   6.863  1.00  0.00    -0.387 OA
HETATM   23  H20 UNK   900     -15.629 -14.703   7.448  1.00  0.00     0.210 HD
ENDBRANCH   3  22
BRANCH   4  24
HETATM   24  O3  UNK   900     -16.365 -12.445   3.214  1.00  0.00    -0.390 OA
HETATM   25  H21 UNK   900     -15.707 -13.109   2.948  1.00  0.00     0.210 HD
ENDBRANCH   4  24
TORSDOF 7
ENDMDL
MODEL 8
REMARK VINA RESULT:      -5.6      2.329      5.610
REMARK  7 active torsions:
REMARK  status: ('A' for Active; 'I' for Inactive)
REMARK    1  A    between atoms: O1_1  and  C1_6 
REMARK    2  A    between atoms: O2_2  and  C3_8 
REMARK    3  A    between atoms: O3_3  and  C4_9 
REMARK    4  A    between atoms: O4_4  and  C11_16 
REMARK    5  A    between atoms: O5_5  and  C14_19 
REMARK    6  A    between atoms: C8_13  and  C11_16 
REMARK    7  A    between atoms: C11_16  and  C14_19 
ROOT
HETATM    1  C1  UNK   900     -13.334 -11.242   3.603  1.00  0.00     0.095 C 
HETATM    2  C2  UNK   900     -14.782 -10.818   3.960  1.00  0.00     0.057 C 
HETATM    3  C3  UNK   900     -13.031 -10.286   2.411  1.00  0.00     0.085 C 
HETATM    4  C4  UNK   900     -15.616 -11.694   4.928  1.00  0.00     0.061 C 
HETATM    5  C5  UNK   900     -13.149 -12.735   3.244  1.00  0.00     0.049 C 
HETATM    6  C6  UNK   900     -15.444 -10.522   2.596  1.00  0.00     0.014 C 
HETATM    7  C7  UNK   900     -14.311 -10.350   1.578  1.00  0.00     0.041 C 
HETATM    8  C8  UNK   900     -13.320 -13.702   4.430  1.00  0.00     0.025 C 
HETATM    9  C9  UNK   900     -15.873 -13.128   4.431  1.00  0.00     0.038 C 
HETATM   10  C10 UNK   900     -14.766 -14.157   4.650  1.00  0.00     0.011 C 
HETATM   11  C12 UNK   900     -11.782 -10.580   1.588  1.00  0.00     0.049 C 
HETATM   12  C13 UNK   900     -16.972 -11.009   5.191  1.00  0.00     0.046 C 
ENDROOT
BRANCH   8  13
HETATM   13  C11 UNK   900     -12.435 -14.943   4.236  1.00  0.00     0.079 C 
HETATM   14  C15 UNK   900     -13.201 -16.201   4.641  1.00  0.00     0.048 C 
BRANCH  13  15
HETATM   15  O4  UNK   900     -11.313 -14.822   5.110  1.00  0.00    -0.388 OA
HETATM   16  H27 UNK   900     -11.326 -13.927   5.491  1.00  0.00     0.210 HD
ENDBRANCH  13  15
BRANCH  13  17
HETATM   17  C14 UNK   900     -11.934 -15.011   2.790  1.00  0.00     0.201 C 
BRANCH  17  18
HETATM   18  O5  UNK   900     -12.428 -16.184   2.153  1.00  0.00    -0.398 OA
HETATM   19  H28 UNK   900     -12.325 -16.918   2.782  1.00  0.00     0.209 HD
ENDBRANCH  17  18
ENDBRANCH  13  17
ENDBRANCH   8  13
BRANCH   1  20
HETATM   20  O1  UNK   900     -12.464 -10.923   4.690  1.00  0.00    -0.386 OA
HETATM   21  H19 UNK   900     -11.716 -11.543   4.666  1.00  0.00     0.210 HD
ENDBRANCH   1  20
BRANCH   3  22
HETATM   22  O2  UNK   900     -12.909  -8.939   2.891  1.00  0.00    -0.387 OA
HETATM   23  H20 UNK   900     -12.198  -8.916   3.553  1.00  0.00     0.210 HD
ENDBRANCH   3  22
BRANCH   4  24
HETATM   24  O3  UNK   900     -14.936 -11.737   6.187  1.00  0.00    -0.390 OA
HETATM   25  H21 UNK   900     -14.877 -10.828   6.529  1.00  0.00     0.210 HD
ENDBRANCH   4  24
TORSDOF 7
ENDMDL
MODEL 9
REMARK VINA RESULT:      -5.6      3.470      5.357
REMARK  7 active torsions:
REMARK  status: ('A' for Active; 'I' for Inactive)
REMARK    1  A    between atoms: O1_1  and  C1_6 
REMARK    2  A    between atoms: O2_2  and  C3_8 
REMARK    3  A    between atoms: O3_3  and  C4_9 
REMARK    4  A    between atoms: O4_4  and  C11_16 
REMARK    5  A    between atoms: O5_5  and  C14_19 
REMARK    6  A    between atoms: C8_13  and  C11_16 
REMARK    7  A    between atoms: C11_16  and  C14_19 
ROOT
HETATM    1  C1  UNK   900     -13.761 -11.625   2.620  1.00  0.00     0.095 C 
HETATM    2  C2  UNK   900     -12.863 -10.442   3.065  1.00  0.00     0.057 C 
HETATM    3  C3  UNK   900     -14.958 -11.475   3.605  1.00  0.00     0.085 C 
HETATM    4  C4  UNK   900     -11.408 -10.351   2.543  1.00  0.00     0.061 C 
HETATM    5  C5  UNK   900     -13.098 -13.020   2.681  1.00  0.00     0.049 C 
HETATM    6  C6  UNK   900     -13.019 -10.396   4.602  1.00  0.00     0.014 C 
HETATM    7  C7  UNK   900     -14.276 -11.205   4.946  1.00  0.00     0.041 C 
HETATM    8  C8  UNK   900     -11.991 -13.247   1.636  1.00  0.00     0.025 C 
HETATM    9  C9  UNK   900     -10.509 -11.534   2.946  1.00  0.00     0.038 C 
HETATM   10  C10 UNK   900     -10.601 -12.806   2.105  1.00  0.00     0.011 C 
HETATM   11  C12 UNK   900     -15.947 -12.632   3.675  1.00  0.00     0.049 C 
HETATM   12  C13 UNK   900     -10.766  -9.045   3.052  1.00  0.00     0.046 C 
ENDROOT
BRANCH   8  13
HETATM   13  C11 UNK   900     -11.931 -14.730   1.238  1.00  0.00     0.079 C 
HETATM   14  C15 UNK   900     -11.110 -14.898  -0.039  1.00  0.00     0.048 C 
BRANCH  13  15
HETATM   15  O4  UNK   900     -13.261 -15.162   0.954  1.00  0.00    -0.388 OA
HETATM   16  H27 UNK   900     -13.825 -14.906   1.704  1.00  0.00     0.210 HD
ENDBRANCH  13  15
BRANCH  13  17
HETATM   17  C14 UNK   900     -11.374 -15.563   2.397  1.00  0.00     0.201 C 
BRANCH  17  18
HETATM   18  O5  UNK   900     -12.328 -16.537   2.805  1.00  0.00    -0.398 OA
HETATM   19  H28 UNK   900     -12.201 -16.684   3.757  1.00  0.00     0.209 HD
ENDBRANCH  17  18
ENDBRANCH  13  17
ENDBRANCH   8  13
BRANCH   1  20
HETATM   20  O1  UNK   900     -14.221 -11.396   1.287  1.00  0.00    -0.386 OA
HETATM   21  H19 UNK   900     -14.579 -10.493   1.246  1.00  0.00     0.210 HD
ENDBRANCH   1  20
BRANCH   3  22
HETATM   22  O2  UNK   900     -15.711 -10.298   3.274  1.00  0.00    -0.387 OA
HETATM   23  H20 UNK   900     -16.228 -10.485   2.471  1.00  0.00     0.210 HD
ENDBRANCH   3  22
BRANCH   4  24
HETATM   24  O3  UNK   900     -11.452 -10.247   1.115  1.00  0.00    -0.390 OA
HETATM   25  H21 UNK   900     -12.374 -10.079   0.854  1.00  0.00     0.210 HD
ENDBRANCH   4  24
TORSDOF 7
ENDMDL
