MODEL 1
REMARK VINA RESULT:      -6.4      0.000      0.000
REMARK  9 active torsions:
REMARK  status: ('A' for Active; 'I' for Inactive)
REMARK    1  A    between atoms: C2_2  and  O1_4 
REMARK    2  A    between atoms: O1_4  and  C4_5 
REMARK    3  A    between atoms: C7_8  and  C8_9 
REMARK    4  A    between atoms: C8_9  and  C9_10 
REMARK    5  A    between atoms: C8_9  and  C19_22 
REMARK    6  A    between atoms: C9_10  and  C10_11 
REMARK    7  A    between atoms: C10_11  and  N1_12 
REMARK    8  A    between atoms: N1_12  and  C11_13 
REMARK    9  A    between atoms: C11_13  and  C13_15 
ROOT
HETATM    1  C8  UNK   900     -14.091 -12.910   6.982  1.00  0.00     0.047 C 
ENDROOT
BRANCH   1   2
HETATM    2  C7  UNK   900     -13.391 -13.790   5.811  1.00  0.00    -0.018 C 
HETATM    3  C6  UNK   900     -12.287 -13.196   5.247  1.00  0.00    -0.002 C 
HETATM    4  C5  UNK   900     -11.761 -13.800   4.114  1.00  0.00     0.024 C 
HETATM    5  C4  UNK   900     -12.507 -14.721   3.398  1.00  0.00     0.094 C 
HETATM    6  C26 UNK   900     -13.521 -15.358   4.101  1.00  0.00     0.024 C 
HETATM    7  C25 UNK   900     -14.164 -14.607   5.077  1.00  0.00    -0.002 C 
BRANCH   5   8
HETATM    8  O1  UNK   900     -11.885 -15.363   2.326  1.00  0.00    -0.333 OA
BRANCH   8   9
HETATM    9  C2  UNK   900     -12.004 -14.745   1.052  1.00  0.00     0.121 C 
HETATM   10  C1  UNK   900     -12.331 -15.230   0.578  1.00  0.00     0.033 C 
HETATM   11  C3  UNK   900     -10.610 -14.392   0.556  1.00  0.00     0.033 C 
ENDBRANCH   8   9
ENDBRANCH   5   8
ENDBRANCH   1   2
BRANCH   1  12
HETATM   12  C9  UNK   900     -15.551 -12.828   6.195  1.00  0.00     0.047 C 
BRANCH  12  13
HETATM   13  C10 UNK   900     -15.811 -11.377   5.983  1.00  0.00     0.291 C 
BRANCH  13  14
HETATM   14  N1  UNK   900     -14.821 -10.876   5.081  1.00  0.00     0.338 N 
BRANCH  14  15
HETATM   15  C11 UNK   900     -15.158 -11.510   3.662  1.00  0.00     0.265 C 
HETATM   16  C12 UNK   900     -16.518 -10.569   3.492  1.00  0.00     0.039 C 
BRANCH  15  17
HETATM   17  C13 UNK   900     -14.223 -10.439   2.855  1.00  0.00     0.078 C 
HETATM   18  C14 UNK   900     -13.716 -11.059   1.717  1.00  0.00    -0.019 C 
HETATM   19  C15 UNK   900     -12.361 -11.056   1.405  1.00  0.00     0.007 C 
HETATM   20  C16 UNK   900     -11.438 -10.564   2.319  1.00  0.00     0.057 C 
HETATM   21 CL1  UNK   900      -9.878 -11.353   2.557  1.00  0.00    -0.082 Cl
HETATM   22  C17 UNK   900     -11.949  -9.656   3.226  1.00  0.00     0.007 C 
HETATM   23  C18 UNK   900     -13.258  -9.842   3.641  1.00  0.00    -0.019 C 
ENDBRANCH  15  17
ENDBRANCH  14  15
ENDBRANCH  13  14
ENDBRANCH  12  13
ENDBRANCH   1  12
BRANCH   1  24
HETATM   24  C19 UNK   900     -14.464 -14.219   7.857  1.00  0.00    -0.018 C 
HETATM   25  C20 UNK   900     -15.716 -14.478   8.230  1.00  0.00    -0.004 C 
HETATM   26  C21 UNK   900     -15.951 -15.760   8.715  1.00  0.00    -0.000 C 
HETATM   27  C22 UNK   900     -14.895 -16.597   9.056  1.00  0.00    -0.000 C 
HETATM   28  C23 UNK   900     -13.654 -15.983   9.178  1.00  0.00    -0.000 C 
HETATM   29  C24 UNK   900     -13.415 -14.755   8.572  1.00  0.00    -0.004 C 
ENDBRANCH   1  24
TORSDOF 9
ENDMDL
MODEL 2
REMARK VINA RESULT:      -6.3      2.632      5.600
REMARK  9 active torsions:
REMARK  status: ('A' for Active; 'I' for Inactive)
REMARK    1  A    between atoms: C2_2  and  O1_4 
REMARK    2  A    between atoms: O1_4  and  C4_5 
REMARK    3  A    between atoms: C7_8  and  C8_9 
REMARK    4  A    between atoms: C8_9  and  C9_10 
REMARK    5  A    between atoms: C8_9  and  C19_22 
REMARK    6  A    between atoms: C9_10  and  C10_11 
REMARK    7  A    between atoms: C10_11  and  N1_12 
REMARK    8  A    between atoms: N1_12  and  C11_13 
REMARK    9  A    between atoms: C11_13  and  C13_15 
ROOT
HETATM    1  C8  UNK   900     -13.899 -13.221   6.629  1.00  0.00     0.047 C 
ENDROOT
BRANCH   1   2
HETATM    2  C7  UNK   900     -14.855 -14.475   7.012  1.00  0.00    -0.018 C 
HETATM    3  C6  UNK   900     -15.061 -14.632   8.362  1.00  0.00    -0.002 C 
HETATM    4  C5  UNK   900     -15.703 -15.794   8.767  1.00  0.00     0.024 C 
HETATM    5  C4  UNK   900     -15.806 -16.876   7.909  1.00  0.00     0.094 C 
HETATM    6  C26 UNK   900     -15.710 -16.587   6.555  1.00  0.00     0.024 C 
HETATM    7  C25 UNK   900     -14.860 -15.547   6.201  1.00  0.00    -0.002 C 
BRANCH   5   8
HETATM    8  O1  UNK   900     -16.548 -17.976   8.343  1.00  0.00    -0.333 OA
BRANCH   8   9
HETATM    9  C2  UNK   900     -15.892 -18.889   9.212  1.00  0.00     0.121 C 
HETATM   10  C1  UNK   900     -15.643 -19.473   8.806  1.00  0.00     0.033 C 
HETATM   11  C3  UNK   900     -16.894 -19.368  10.252  1.00  0.00     0.033 C 
ENDBRANCH   8   9
ENDBRANCH   5   8
ENDBRANCH   1   2
BRANCH   1  12
HETATM   12  C9  UNK   900     -13.180 -14.019   5.361  1.00  0.00     0.047 C 
BRANCH  12  13
HETATM   13  C10 UNK   900     -11.716 -13.814   5.539  1.00  0.00     0.291 C 
BRANCH  13  14
HETATM   14  N1  UNK   900     -11.348 -12.614   4.855  1.00  0.00     0.338 N 
BRANCH  14  15
HETATM   15  C11 UNK   900     -10.748 -11.643   5.962  1.00  0.00     0.265 C 
HETATM   16  C12 UNK   900      -9.206 -11.806   5.363  1.00  0.00     0.039 C 
BRANCH  15  17
HETATM   17  C13 UNK   900     -11.033 -10.299   5.076  1.00  0.00     0.078 C 
HETATM   18  C14 UNK   900     -12.398 -10.031   5.099  1.00  0.00    -0.019 C 
HETATM   19  C15 UNK   900     -13.138  -9.819   3.941  1.00  0.00     0.007 C 
HETATM   20  C16 UNK   900     -12.559 -10.032   2.697  1.00  0.00     0.057 C 
HETATM   21 CL1  UNK   900     -13.467 -10.778   1.381  1.00  0.00    -0.082 Cl
HETATM   22  C17 UNK   900     -11.181  -9.931   2.675  1.00  0.00     0.007 C 
HETATM   23  C18 UNK   900     -10.496 -10.349   3.805  1.00  0.00    -0.019 C 
ENDBRANCH  15  17
ENDBRANCH  14  15
ENDBRANCH  13  14
ENDBRANCH  12  13
ENDBRANCH   1  12
BRANCH   1  24
HETATM   24  C19 UNK   900     -15.045 -12.514   5.731  1.00  0.00    -0.018 C 
HETATM   25  C20 UNK   900     -16.107 -11.932   6.284  1.00  0.00    -0.004 C 
HETATM   26  C21 UNK   900     -16.857 -11.117   5.444  1.00  0.00    -0.000 C 
HETATM   27  C22 UNK   900     -16.674 -11.152   4.067  1.00  0.00    -0.000 C 
HETATM   28  C23 UNK   900     -15.950 -12.236   3.582  1.00  0.00    -0.000 C 
HETATM   29  C24 UNK   900     -15.111 -12.954   4.427  1.00  0.00    -0.004 C 
ENDBRANCH   1  24
TORSDOF 9
ENDMDL
MODEL 3
REMARK VINA RESULT:      -6.2      2.288      5.578
REMARK  9 active torsions:
REMARK  status: ('A' for Active; 'I' for Inactive)
REMARK    1  A    between atoms: C2_2  and  O1_4 
REMARK    2  A    between atoms: O1_4  and  C4_5 
REMARK    3  A    between atoms: C7_8  and  C8_9 
REMARK    4  A    between atoms: C8_9  and  C9_10 
REMARK    5  A    between atoms: C8_9  and  C19_22 
REMARK    6  A    between atoms: C9_10  and  C10_11 
REMARK    7  A    between atoms: C10_11  and  N1_12 
REMARK    8  A    between atoms: N1_12  and  C11_13 
REMARK    9  A    between atoms: C11_13  and  C13_15 
ROOT
HETATM    1  C8  UNK   900     -13.640 -13.493   5.541  1.00  0.00     0.047 C 
ENDROOT
BRANCH   1   2
HETATM    2  C7  UNK   900     -14.458 -14.151   6.780  1.00  0.00    -0.018 C 
HETATM    3  C6  UNK   900     -13.665 -14.527   7.839  1.00  0.00    -0.002 C 
HETATM    4  C5  UNK   900     -14.271 -15.271   8.841  1.00  0.00     0.024 C 
HETATM    5  C4  UNK   900     -15.487 -15.893   8.617  1.00  0.00     0.094 C 
HETATM    6  C26 UNK   900     -16.268 -15.352   7.604  1.00  0.00     0.024 C 
HETATM    7  C25 UNK   900     -15.589 -14.825   6.514  1.00  0.00    -0.002 C 
BRANCH   5   8
HETATM    8  O1  UNK   900     -16.088 -16.544   9.696  1.00  0.00    -0.333 OA
BRANCH   8   9
HETATM    9  C2  UNK   900     -16.484 -17.893   9.491  1.00  0.00     0.121 C 
HETATM   10  C1  UNK   900     -17.006 -18.073  10.003  1.00  0.00     0.033 C 
HETATM   11  C3  UNK   900     -15.262 -18.784   9.657  1.00  0.00     0.033 C 
ENDBRANCH   8   9
ENDBRANCH   5   8
ENDBRANCH   1   2
BRANCH   1  12
HETATM   12  C9  UNK   900     -14.112 -14.667   4.467  1.00  0.00     0.047 C 
BRANCH  12  13
HETATM   13  C10 UNK   900     -12.880 -15.044   3.720  1.00  0.00     0.291 C 
BRANCH  13  14
HETATM   14  N1  UNK   900     -12.203 -13.843   3.344  1.00  0.00     0.338 N 
BRANCH  14  15
HETATM   15  C11 UNK   900     -11.206 -14.248   2.173  1.00  0.00     0.265 C 
HETATM   16  C12 UNK   900     -12.446 -14.819   1.226  1.00  0.00     0.039 C 
BRANCH  15  17
HETATM   17  C13 UNK   900     -11.261 -12.766   1.484  1.00  0.00     0.078 C 
HETATM   18  C14 UNK   900     -10.405 -11.919   2.181  1.00  0.00    -0.019 C 
HETATM   19  C15 UNK   900     -10.810 -10.680   2.667  1.00  0.00     0.007 C 
HETATM   20  C16 UNK   900     -12.150 -10.316   2.611  1.00  0.00     0.057 C 
HETATM   21 CL1  UNK   900     -12.915  -9.442   3.938  1.00  0.00    -0.082 Cl
HETATM   22  C17 UNK   900     -12.884 -10.959   1.633  1.00  0.00     0.007 C 
HETATM   23  C18 UNK   900     -12.541 -12.269   1.339  1.00  0.00    -0.019 C 
ENDBRANCH  15  17
ENDBRANCH  14  15
ENDBRANCH  13  14
ENDBRANCH  12  13
ENDBRANCH   1  12
BRANCH   1  24
HETATM   24  C19 UNK   900     -14.842 -12.470   5.184  1.00  0.00    -0.018 C 
HETATM   25  C20 UNK   900     -15.263 -12.294   3.933  1.00  0.00    -0.004 C 
HETATM   26  C21 UNK   900     -16.474 -11.627   3.789  1.00  0.00    -0.000 C 
HETATM   27  C22 UNK   900     -17.041 -10.941   4.857  1.00  0.00    -0.000 C 
HETATM   28  C23 UNK   900     -16.200 -10.710   5.940  1.00  0.00    -0.000 C 
HETATM   29  C24 UNK   900     -15.060 -11.483   6.121  1.00  0.00    -0.004 C 
ENDBRANCH   1  24
TORSDOF 9
ENDMDL
MODEL 4
REMARK VINA RESULT:      -5.8      2.396      5.929
REMARK  9 active torsions:
REMARK  status: ('A' for Active; 'I' for Inactive)
REMARK    1  A    between atoms: C2_2  and  O1_4 
REMARK    2  A    between atoms: O1_4  and  C4_5 
REMARK    3  A    between atoms: C7_8  and  C8_9 
REMARK    4  A    between atoms: C8_9  and  C9_10 
REMARK    5  A    between atoms: C8_9  and  C19_22 
REMARK    6  A    between atoms: C9_10  and  C10_11 
REMARK    7  A    between atoms: C10_11  and  N1_12 
REMARK    8  A    between atoms: N1_12  and  C11_13 
REMARK    9  A    between atoms: C11_13  and  C13_15 
ROOT
HETATM    1  C8  UNK   900     -13.087 -13.035   4.343  1.00  0.00     0.047 C 
ENDROOT
BRANCH   1   2
HETATM    2  C7  UNK   900     -14.173 -13.526   5.445  1.00  0.00    -0.018 C 
HETATM    3  C6  UNK   900     -14.131 -12.824   6.626  1.00  0.00    -0.002 C 
HETATM    4  C5  UNK   900     -14.892 -13.318   7.675  1.00  0.00     0.024 C 
HETATM    5  C4  UNK   900     -15.371 -14.617   7.646  1.00  0.00     0.094 C 
HETATM    6  C26 UNK   900     -15.494 -15.190   6.387  1.00  0.00     0.024 C 
HETATM    7  C25 UNK   900     -14.546 -14.817   5.442  1.00  0.00    -0.002 C 
BRANCH   5   8
HETATM    8  O1  UNK   900     -16.211 -15.019   8.686  1.00  0.00    -0.333 OA
BRANCH   8   9
HETATM    9  C2  UNK   900     -15.976 -16.308   9.236  1.00  0.00     0.121 C 
HETATM   10  C1  UNK   900     -16.432 -16.406   9.828  1.00  0.00     0.033 C 
HETATM   11  C3  UNK   900     -14.523 -16.385   9.682  1.00  0.00     0.033 C 
ENDBRANCH   8   9
ENDBRANCH   5   8
ENDBRANCH   1   2
BRANCH   1  12
HETATM   12  C9  UNK   900     -13.391 -14.307   3.319  1.00  0.00     0.047 C 
BRANCH  12  13
HETATM   13  C10 UNK   900     -12.158 -14.462   2.498  1.00  0.00     0.291 C 
BRANCH  13  14
HETATM   14  N1  UNK   900     -11.085 -13.806   3.177  1.00  0.00     0.338 N 
BRANCH  14  15
HETATM   15  C11 UNK   900      -9.873 -13.764   2.149  1.00  0.00     0.265 C 
HETATM   16  C12 UNK   900     -10.719 -12.803   1.089  1.00  0.00     0.039 C 
BRANCH  15  17
HETATM   17  C13 UNK   900      -9.174 -12.479   2.877  1.00  0.00     0.078 C 
HETATM   18  C14 UNK   900      -9.035 -12.756   4.234  1.00  0.00    -0.019 C 
HETATM   19  C15 UNK   900      -9.483 -11.889   5.224  1.00  0.00     0.007 C 
HETATM   20  C16 UNK   900     -10.241 -10.776   4.883  1.00  0.00     0.057 C 
HETATM   21 CL1  UNK   900     -11.609 -10.264   5.873  1.00  0.00    -0.082 Cl
HETATM   22  C17 UNK   900     -10.061 -10.327   3.589  1.00  0.00     0.007 C 
HETATM   23  C18 UNK   900      -9.808 -11.280   2.615  1.00  0.00    -0.019 C 
ENDBRANCH  15  17
ENDBRANCH  14  15
ENDBRANCH  13  14
ENDBRANCH  12  13
ENDBRANCH   1  12
BRANCH   1  24
HETATM   24  C19 UNK   900     -14.135 -12.022   3.641  1.00  0.00    -0.018 C 
HETATM   25  C20 UNK   900     -15.408 -12.360   3.439  1.00  0.00    -0.004 C 
HETATM   26  C21 UNK   900     -16.266 -11.320   3.104  1.00  0.00    -0.000 C 
HETATM   27  C22 UNK   900     -15.767 -10.080   2.722  1.00  0.00    -0.000 C 
HETATM   28  C23 UNK   900     -14.415 -10.047   2.402  1.00  0.00    -0.000 C 
HETATM   29  C24 UNK   900     -13.560 -11.042   2.861  1.00  0.00    -0.004 C 
ENDBRANCH   1  24
TORSDOF 9
ENDMDL
MODEL 5
REMARK VINA RESULT:      -5.6     28.927     31.334
REMARK  9 active torsions:
REMARK  status: ('A' for Active; 'I' for Inactive)
REMARK    1  A    between atoms: C2_2  and  O1_4 
REMARK    2  A    between atoms: O1_4  and  C4_5 
REMARK    3  A    between atoms: C7_8  and  C8_9 
REMARK    4  A    between atoms: C8_9  and  C9_10 
REMARK    5  A    between atoms: C8_9  and  C19_22 
REMARK    6  A    between atoms: C9_10  and  C10_11 
REMARK    7  A    between atoms: C10_11  and  N1_12 
REMARK    8  A    between atoms: N1_12  and  C11_13 
REMARK    9  A    between atoms: C11_13  and  C13_15 
ROOT
HETATM    1  C8  UNK   900     -35.358 -17.742 -16.056  1.00  0.00     0.047 C 
ENDROOT
BRANCH   1   2
HETATM    2  C7  UNK   900     -35.440 -18.774 -17.306  1.00  0.00    -0.018 C 
HETATM    3  C6  UNK   900     -36.221 -19.880 -17.071  1.00  0.00    -0.002 C 
HETATM    4  C5  UNK   900     -36.176 -20.892 -18.020  1.00  0.00     0.024 C 
HETATM    5  C4  UNK   900     -35.150 -20.940 -18.948  1.00  0.00     0.094 C 
HETATM    6  C26 UNK   900     -34.508 -19.736 -19.205  1.00  0.00     0.024 C 
HETATM    7  C25 UNK   900     -34.387 -18.858 -18.136  1.00  0.00    -0.002 C 
BRANCH   5   8
HETATM    8  O1  UNK   900     -35.216 -21.926 -19.934  1.00  0.00    -0.333 OA
BRANCH   8   9
HETATM    9  C2  UNK   900     -34.419 -23.085 -19.736  1.00  0.00     0.121 C 
HETATM   10  C1  UNK   900     -34.083 -23.262 -20.387  1.00  0.00     0.033 C 
HETATM   11  C3  UNK   900     -35.325 -24.223 -19.291  1.00  0.00     0.033 C 
ENDBRANCH   8   9
ENDBRANCH   5   8
ENDBRANCH   1   2
BRANCH   1  12
HETATM   12  C9  UNK   900     -33.704 -17.840 -15.945  1.00  0.00     0.047 C 
BRANCH  12  13
HETATM   13  C10 UNK   900     -33.427 -18.444 -14.613  1.00  0.00     0.291 C 
BRANCH  13  14
HETATM   14  N1  UNK   900     -32.151 -19.085 -14.672  1.00  0.00     0.338 N 
BRANCH  14  15
HETATM   15  C11 UNK   900     -32.384 -20.575 -14.168  1.00  0.00     0.265 C 
HETATM   16  C12 UNK   900     -33.928 -20.232 -13.659  1.00  0.00     0.039 C 
BRANCH  15  17
HETATM   17  C13 UNK   900     -32.898 -21.092 -15.631  1.00  0.00     0.078 C 
HETATM   18  C14 UNK   900     -33.605 -22.279 -15.461  1.00  0.00    -0.019 C 
HETATM   19  C15 UNK   900     -33.325 -23.427 -16.195  1.00  0.00     0.007 C 
HETATM   20  C16 UNK   900     -32.207 -23.471 -17.018  1.00  0.00     0.057 C 
HETATM   21 CL1  UNK   900     -31.219 -24.927 -17.140  1.00  0.00    -0.082 Cl
HETATM   22  C17 UNK   900     -31.756 -22.238 -17.449  1.00  0.00     0.007 C 
HETATM   23  C18 UNK   900     -31.894 -21.170 -16.576  1.00  0.00    -0.019 C 
ENDBRANCH  15  17
ENDBRANCH  14  15
ENDBRANCH  13  14
ENDBRANCH  12  13
ENDBRANCH   1  12
BRANCH   1  24
HETATM   24  C19 UNK   900     -35.368 -16.443 -17.020  1.00  0.00    -0.018 C 
HETATM   25  C20 UNK   900     -34.380 -15.550 -17.003  1.00  0.00    -0.004 C 
HETATM   26  C21 UNK   900     -34.355 -14.653 -18.064  1.00  0.00    -0.000 C 
HETATM   27  C22 UNK   900     -35.451 -14.518 -18.908  1.00  0.00    -0.000 C 
HETATM   28  C23 UNK   900     -36.637 -15.081 -18.452  1.00  0.00    -0.000 C 
HETATM   29  C24 UNK   900     -36.614 -16.070 -17.475  1.00  0.00    -0.004 C 
ENDBRANCH   1  24
TORSDOF 9
ENDMDL
MODEL 6
REMARK VINA RESULT:      -5.4      2.170      6.178
REMARK  9 active torsions:
REMARK  status: ('A' for Active; 'I' for Inactive)
REMARK    1  A    between atoms: C2_2  and  O1_4 
REMARK    2  A    between atoms: O1_4  and  C4_5 
REMARK    3  A    between atoms: C7_8  and  C8_9 
REMARK    4  A    between atoms: C8_9  and  C9_10 
REMARK    5  A    between atoms: C8_9  and  C19_22 
REMARK    6  A    between atoms: C9_10  and  C10_11 
REMARK    7  A    between atoms: C10_11  and  N1_12 
REMARK    8  A    between atoms: N1_12  and  C11_13 
REMARK    9  A    between atoms: C11_13  and  C13_15 
ROOT
HETATM    1  C8  UNK   900     -12.117 -13.170   1.337  1.00  0.00     0.047 C 
ENDROOT
BRANCH   1   2
HETATM    2  C7  UNK   900     -12.133 -14.090   2.675  1.00  0.00    -0.018 C 
HETATM    3  C6  UNK   900     -13.385 -14.523   3.043  1.00  0.00    -0.002 C 
HETATM    4  C5  UNK   900     -13.494 -15.144   4.279  1.00  0.00     0.024 C 
HETATM    5  C4  UNK   900     -12.489 -15.014   5.222  1.00  0.00     0.094 C 
HETATM    6  C26 UNK   900     -11.231 -14.697   4.728  1.00  0.00     0.024 C 
HETATM    7  C25 UNK   900     -11.194 -13.873   3.611  1.00  0.00    -0.002 C 
BRANCH   5   8
HETATM    8  O1  UNK   900     -12.616 -15.743   6.406  1.00  0.00    -0.333 OA
BRANCH   8   9
HETATM    9  C2  UNK   900     -12.430 -15.029   7.621  1.00  0.00     0.121 C 
HETATM   10  C1  UNK   900     -12.431 -15.520   8.192  1.00  0.00     0.033 C 
HETATM   11  C3  UNK   900     -13.577 -14.043   7.780  1.00  0.00     0.033 C 
ENDBRANCH   8   9
ENDBRANCH   5   8
ENDBRANCH   1   2
BRANCH   1  12
HETATM   12  C9  UNK   900     -10.776 -12.313   1.812  1.00  0.00     0.047 C 
BRANCH  12  13
HETATM   13  C10 UNK   900     -10.951 -10.949   1.242  1.00  0.00     0.291 C 
BRANCH  13  14
HETATM   14  N1  UNK   900     -11.949 -10.271   2.007  1.00  0.00     0.338 N 
BRANCH  14  15
HETATM   15  C11 UNK   900     -11.514 -10.422   3.529  1.00  0.00     0.265 C 
HETATM   16  C12 UNK   900     -10.957  -8.858   3.594  1.00  0.00     0.039 C 
BRANCH  15  17
HETATM   17  C13 UNK   900     -12.990 -10.001   4.093  1.00  0.00     0.078 C 
HETATM   18  C14 UNK   900     -13.328 -10.854   5.139  1.00  0.00    -0.019 C 
HETATM   19  C15 UNK   900     -14.537 -11.538   5.185  1.00  0.00     0.007 C 
HETATM   20  C16 UNK   900     -15.391 -11.516   4.089  1.00  0.00     0.057 C 
HETATM   21 CL1  UNK   900     -16.278 -12.957   3.592  1.00  0.00    -0.082 Cl
HETATM   22  C17 UNK   900     -15.236 -10.424   3.257  1.00  0.00     0.007 C 
HETATM   23  C18 UNK   900     -13.955  -9.915   3.109  1.00  0.00    -0.019 C 
ENDBRANCH  15  17
ENDBRANCH  14  15
ENDBRANCH  13  14
ENDBRANCH  12  13
ENDBRANCH   1  12
BRANCH   1  24
HETATM   24  C19 UNK   900     -11.296 -14.275   0.487  1.00  0.00    -0.018 C 
HETATM   25  C20 UNK   900     -11.745 -15.521   0.341  1.00  0.00    -0.004 C 
HETATM   26  C21 UNK   900     -11.114 -16.281  -0.638  1.00  0.00    -0.000 C 
HETATM   27  C22 UNK   900      -9.916 -15.861  -1.204  1.00  0.00    -0.000 C 
HETATM   28  C23 UNK   900      -9.257 -14.839  -0.531  1.00  0.00    -0.000 C 
HETATM   29  C24 UNK   900      -9.950 -14.016   0.349  1.00  0.00    -0.004 C 
ENDBRANCH   1  24
TORSDOF 9
ENDMDL
MODEL 7
REMARK VINA RESULT:      -5.3     28.245     30.702
REMARK  9 active torsions:
REMARK  status: ('A' for Active; 'I' for Inactive)
REMARK    1  A    between atoms: C2_2  and  O1_4 
REMARK    2  A    between atoms: O1_4  and  C4_5 
REMARK    3  A    between atoms: C7_8  and  C8_9 
REMARK    4  A    between atoms: C8_9  and  C9_10 
REMARK    5  A    between atoms: C8_9  and  C19_22 
REMARK    6  A    between atoms: C9_10  and  C10_11 
REMARK    7  A    between atoms: C10_11  and  N1_12 
REMARK    8  A    between atoms: N1_12  and  C11_13 
REMARK    9  A    between atoms: C11_13  and  C13_15 
ROOT
HETATM    1  C8  UNK   900     -34.641 -18.457 -17.780  1.00  0.00     0.047 C 
ENDROOT
BRANCH   1   2
HETATM    2  C7  UNK   900     -33.677 -18.250 -16.491  1.00  0.00    -0.018 C 
HETATM    3  C6  UNK   900     -32.373 -18.636 -16.697  1.00  0.00    -0.002 C 
HETATM    4  C5  UNK   900     -31.547 -18.670 -15.583  1.00  0.00     0.024 C 
HETATM    5  C4  UNK   900     -32.085 -18.665 -14.308  1.00  0.00     0.094 C 
HETATM    6  C26 UNK   900     -33.363 -18.136 -14.191  1.00  0.00     0.024 C 
HETATM    7  C25 UNK   900     -34.219 -18.342 -15.265  1.00  0.00    -0.002 C 
BRANCH   5   8
HETATM    8  O1  UNK   900     -31.197 -18.602 -13.232  1.00  0.00    -0.333 OA
BRANCH   8   9
HETATM    9  C2  UNK   900     -30.799 -19.839 -12.657  1.00  0.00     0.121 C 
HETATM   10  C1  UNK   900     -30.159 -20.064 -12.985  1.00  0.00     0.033 C 
HETATM   11  C3  UNK   900     -31.898 -20.862 -12.907  1.00  0.00     0.033 C 
ENDBRANCH   8   9
ENDBRANCH   5   8
ENDBRANCH   1   2
BRANCH   1  12
HETATM   12  C9  UNK   900     -35.992 -18.745 -16.858  1.00  0.00     0.047 C 
BRANCH  12  13
HETATM   13  C10 UNK   900     -36.591 -19.994 -17.405  1.00  0.00     0.291 C 
BRANCH  13  14
HETATM   14  N1  UNK   900     -35.623 -21.039 -17.288  1.00  0.00     0.338 N 
BRANCH  14  15
HETATM   15  C11 UNK   900     -36.090 -22.184 -18.287  1.00  0.00     0.265 C 
HETATM   16  C12 UNK   900     -35.907 -21.195 -19.610  1.00  0.00     0.039 C 
BRANCH  15  17
HETATM   17  C13 UNK   900     -34.583 -22.797 -18.442  1.00  0.00     0.078 C 
HETATM   18  C14 UNK   900     -34.600 -24.129 -18.038  1.00  0.00    -0.019 C 
HETATM   19  C15 UNK   900     -33.702 -24.640 -17.107  1.00  0.00     0.007 C 
HETATM   20  C16 UNK   900     -32.851 -23.784 -16.419  1.00  0.00     0.057 C 
HETATM   21 CL1  UNK   900     -32.496 -24.028 -14.709  1.00  0.00    -0.082 Cl
HETATM   22  C17 UNK   900     -32.589 -22.589 -17.061  1.00  0.00     0.007 C 
HETATM   23  C18 UNK   900     -33.609 -22.039 -17.821  1.00  0.00    -0.019 C 
ENDBRANCH  15  17
ENDBRANCH  14  15
ENDBRANCH  13  14
ENDBRANCH  12  13
ENDBRANCH   1  12
BRANCH   1  24
HETATM   24  C19 UNK   900     -34.904 -16.869 -17.942  1.00  0.00    -0.018 C 
HETATM   25  C20 UNK   900     -33.928 -15.977 -17.783  1.00  0.00    -0.004 C 
HETATM   26  C21 UNK   900     -34.203 -14.690 -18.230  1.00  0.00    -0.000 C 
HETATM   27  C22 UNK   900     -35.503 -14.307 -18.540  1.00  0.00    -0.000 C 
HETATM   28  C23 UNK   900     -36.506 -15.158 -18.092  1.00  0.00    -0.000 C 
HETATM   29  C24 UNK   900     -36.215 -16.480 -17.773  1.00  0.00    -0.004 C 
ENDBRANCH   1  24
TORSDOF 9
ENDMDL
MODEL 8
REMARK VINA RESULT:      -5.3     29.938     32.300
REMARK  9 active torsions:
REMARK  status: ('A' for Active; 'I' for Inactive)
REMARK    1  A    between atoms: C2_2  and  O1_4 
REMARK    2  A    between atoms: O1_4  and  C4_5 
REMARK    3  A    between atoms: C7_8  and  C8_9 
REMARK    4  A    between atoms: C8_9  and  C9_10 
REMARK    5  A    between atoms: C8_9  and  C19_22 
REMARK    6  A    between atoms: C9_10  and  C10_11 
REMARK    7  A    between atoms: C10_11  and  N1_12 
REMARK    8  A    between atoms: N1_12  and  C11_13 
REMARK    9  A    between atoms: C11_13  and  C13_15 
ROOT
HETATM    1  C8  UNK   900     -35.448 -18.648 -18.441  1.00  0.00     0.047 C 
ENDROOT
BRANCH   1   2
HETATM    2  C7  UNK   900     -34.966 -18.935 -16.917  1.00  0.00    -0.018 C 
HETATM    3  C6  UNK   900     -33.777 -19.619 -16.825  1.00  0.00    -0.002 C 
HETATM    4  C5  UNK   900     -33.409 -20.068 -15.564  1.00  0.00     0.024 C 
HETATM    5  C4  UNK   900     -34.341 -20.136 -14.542  1.00  0.00     0.094 C 
HETATM    6  C26 UNK   900     -35.448 -19.307 -14.675  1.00  0.00     0.024 C 
HETATM    7  C25 UNK   900     -35.904 -19.085 -15.967  1.00  0.00    -0.002 C 
BRANCH   5   8
HETATM    8  O1  UNK   900     -33.885 -20.502 -13.275  1.00  0.00    -0.333 OA
BRANCH   8   9
HETATM    9  C2  UNK   900     -33.483 -21.854 -13.105  1.00  0.00     0.121 C 
HETATM   10  C1  UNK   900     -34.011 -22.215 -12.706  1.00  0.00     0.033 C 
HETATM   11  C3  UNK   900     -32.160 -21.872 -12.354  1.00  0.00     0.033 C 
ENDBRANCH   8   9
ENDBRANCH   5   8
ENDBRANCH   1   2
BRANCH   1  12
HETATM   12  C9  UNK   900     -37.061 -18.654 -18.045  1.00  0.00     0.047 C 
BRANCH  12  13
HETATM   13  C10 UNK   900     -37.724 -19.494 -19.081  1.00  0.00     0.291 C 
BRANCH  13  14
HETATM   14  N1  UNK   900     -37.881 -20.812 -18.552  1.00  0.00     0.338 N 
BRANCH  14  15
HETATM   15  C11 UNK   900     -38.342 -21.724 -19.770  1.00  0.00     0.265 C 
HETATM   16  C12 UNK   900     -37.308 -20.956 -20.821  1.00  0.00     0.039 C 
BRANCH  15  17
HETATM   17  C13 UNK   900     -37.251 -22.894 -19.433  1.00  0.00     0.078 C 
HETATM   18  C14 UNK   900     -36.569 -22.545 -18.270  1.00  0.00    -0.019 C 
HETATM   19  C15 UNK   900     -35.181 -22.530 -18.194  1.00  0.00     0.007 C 
HETATM   20  C16 UNK   900     -34.419 -22.709 -19.342  1.00  0.00     0.057 C 
HETATM   21 CL1  UNK   900     -32.947 -21.776 -19.617  1.00  0.00    -0.082 Cl
HETATM   22  C17 UNK   900     -35.056 -23.393 -20.359  1.00  0.00     0.007 C 
HETATM   23  C18 UNK   900     -36.423 -23.203 -20.493  1.00  0.00    -0.019 C 
ENDBRANCH  15  17
ENDBRANCH  14  15
ENDBRANCH  13  14
ENDBRANCH  12  13
ENDBRANCH   1  12
BRANCH   1  24
HETATM   24  C19 UNK   900     -35.261 -17.049 -18.286  1.00  0.00    -0.018 C 
HETATM   25  C20 UNK   900     -34.176 -16.522 -17.722  1.00  0.00    -0.004 C 
HETATM   26  C21 UNK   900     -33.997 -15.156 -17.910  1.00  0.00    -0.000 C 
HETATM   27  C22 UNK   900     -35.030 -14.363 -18.394  1.00  0.00    -0.000 C 
HETATM   28  C23 UNK   900     -36.294 -14.942 -18.378  1.00  0.00    -0.000 C 
HETATM   29  C24 UNK   900     -36.432 -16.323 -18.316  1.00  0.00    -0.004 C 
ENDBRANCH   1  24
TORSDOF 9
ENDMDL
MODEL 9
REMARK VINA RESULT:      -5.2     41.934     43.998
REMARK  9 active torsions:
REMARK  status: ('A' for Active; 'I' for Inactive)
REMARK    1  A    between atoms: C2_2  and  O1_4 
REMARK    2  A    between atoms: O1_4  and  C4_5 
REMARK    3  A    between atoms: C7_8  and  C8_9 
REMARK    4  A    between atoms: C8_9  and  C9_10 
REMARK    5  A    between atoms: C8_9  and  C19_22 
REMARK    6  A    between atoms: C9_10  and  C10_11 
REMARK    7  A    between atoms: C10_11  and  N1_12 
REMARK    8  A    between atoms: N1_12  and  C11_13 
REMARK    9  A    between atoms: C11_13  and  C13_15 
ROOT
HETATM    1  C8  UNK   900     -31.528  23.346 -11.235  1.00  0.00     0.047 C 
ENDROOT
BRANCH   1   2
HETATM    2  C7  UNK   900     -32.267  22.121 -12.002  1.00  0.00    -0.018 C 
HETATM    3  C6  UNK   900     -31.873  20.874 -11.577  1.00  0.00    -0.002 C 
HETATM    4  C5  UNK   900     -32.316  19.790 -12.322  1.00  0.00     0.024 C 
HETATM    5  C4  UNK   900     -32.815  19.972 -13.600  1.00  0.00     0.094 C 
HETATM    6  C26 UNK   900     -33.305  21.239 -13.885  1.00  0.00     0.024 C 
HETATM    7  C25 UNK   900     -32.658  22.305 -13.274  1.00  0.00    -0.002 C 
BRANCH   5   8
HETATM    8  O1  UNK   900     -33.334  18.854 -14.256  1.00  0.00    -0.333 OA
BRANCH   8   9
HETATM    9  C2  UNK   900     -34.604  19.006 -14.873  1.00  0.00     0.121 C 
HETATM   10  C1  UNK   900     -35.009  18.382 -14.751  1.00  0.00     0.033 C 
HETATM   11  C3  UNK   900     -34.393  19.203 -16.367  1.00  0.00     0.033 C 
ENDBRANCH   8   9
ENDBRANCH   5   8
ENDBRANCH   1   2
BRANCH   1  12
HETATM   12  C9  UNK   900     -32.223  24.508 -12.197  1.00  0.00     0.047 C 
BRANCH  12  13
HETATM   13  C10 UNK   900     -31.173  25.545 -12.393  1.00  0.00     0.291 C 
BRANCH  13  14
HETATM   14  N1  UNK   900     -29.927  24.881 -12.615  1.00  0.00     0.338 N 
BRANCH  14  15
HETATM   15  C11 UNK   900     -29.248  25.620 -13.848  1.00  0.00     0.265 C 
HETATM   16  C12 UNK   900     -29.094  27.039 -12.997  1.00  0.00     0.039 C 
BRANCH  15  17
HETATM   17  C13 UNK   900     -27.744  25.124 -13.440  1.00  0.00     0.078 C 
HETATM   18  C14 UNK   900     -27.661  25.049 -12.052  1.00  0.00    -0.019 C 
HETATM   19  C15 UNK   900     -26.642  25.661 -11.330  1.00  0.00     0.007 C 
HETATM   20  C16 UNK   900     -25.753  26.515 -11.970  1.00  0.00     0.057 C 
HETATM   21 CL1  UNK   900     -25.193  27.998 -11.196  1.00  0.00    -0.082 Cl
HETATM   22  C17 UNK   900     -25.615  26.297 -13.327  1.00  0.00     0.007 C 
HETATM   23  C18 UNK   900     -26.737  25.870 -14.019  1.00  0.00    -0.019 C 
ENDBRANCH  15  17
ENDBRANCH  14  15
ENDBRANCH  13  14
ENDBRANCH  12  13
ENDBRANCH   1  12
BRANCH   1  24
HETATM   24  C19 UNK   900     -32.657  23.412 -10.079  1.00  0.00    -0.018 C 
HETATM   25  C20 UNK   900     -33.824  24.024 -10.273  1.00  0.00    -0.004 C 
HETATM   26  C21 UNK   900     -34.811  23.763  -9.329  1.00  0.00    -0.000 C 
HETATM   27  C22 UNK   900     -34.497  23.149  -8.122  1.00  0.00    -0.000 C 
HETATM   28  C23 UNK   900     -33.145  23.104  -7.802  1.00  0.00    -0.000 C 
HETATM   29  C24 UNK   900     -32.183  23.244  -8.796  1.00  0.00    -0.004 C 
ENDBRANCH   1  24
TORSDOF 9
ENDMDL
