MODEL 1
REMARK VINA RESULT:      -7.2      0.000      0.000
REMARK  8 active torsions:
REMARK  status: ('A' for Active; 'I' for Inactive)
REMARK    1  A    between atoms: O1_2  and  C2_3 
REMARK    2  A    between atoms: C5_6  and  C6_7 
REMARK    3  A    between atoms: C8_9  and  C9_10 
REMARK       I    between atoms: C9_10  and  N1_12 
REMARK    4  A    between atoms: N1_12  and  C10_13 
REMARK    5  A    between atoms: C10_13  and  C11_14 
REMARK    6  A    between atoms: C11_14  and  C12_15 
REMARK    7  A    between atoms: C15_18  and  O3_19 
REMARK    8  A    between atoms: C17_21  and  O4_22 
ROOT
HETATM    1  C9  UNK   900      -8.742   2.036   4.258  1.00  0.00     0.294 C 
HETATM    2  O2  UNK   900      -9.573   2.228   3.346  1.00  0.00    -0.264 OA
HETATM    3  N1  UNK   900      -9.046   2.512   5.554  1.00  0.00    -0.233 NA
ENDROOT
BRANCH   1   4
HETATM    4  C8  UNK   900      -7.410   1.538   3.900  1.00  0.00     0.162 C 
HETATM    5  C7  UNK   900      -6.185   1.889   4.446  1.00  0.00     0.047 C 
HETATM    6  C6  UNK   900      -5.311   0.871   4.183  1.00  0.00     0.105 C 
HETATM    7  N3  UNK   900      -6.061  -0.164   3.735  1.00  0.00    -0.148 NA
HETATM    8  N2  UNK   900      -7.243   0.297   3.380  1.00  0.00    -0.143 NA
BRANCH   6   9
HETATM    9  C5  UNK   900      -3.851   0.899   4.028  1.00  0.00     0.020 C 
HETATM   10  C4  UNK   900      -3.237   1.600   2.998  1.00  0.00     0.004 C 
HETATM   11  C3  UNK   900      -2.140   1.087   2.315  1.00  0.00     0.024 C 
HETATM   12  C2  UNK   900      -1.609  -0.145   2.675  1.00  0.00     0.094 C 
HETATM   13  C21 UNK   900      -1.932  -0.574   3.956  1.00  0.00     0.024 C 
HETATM   14  C20 UNK   900      -3.088  -0.122   4.582  1.00  0.00     0.004 C 
BRANCH  12  15
HETATM   15  O1  UNK   900      -1.163  -1.035   1.691  1.00  0.00    -0.328 OA
HETATM   16  C1  UNK   900       0.020  -1.786   1.951  1.00  0.00     0.181 C 
ENDBRANCH  12  15
ENDBRANCH   6   9
ENDBRANCH   1   4
BRANCH   3  17
HETATM   17  C10 UNK   900     -10.382   2.343   6.066  1.00  0.00     0.134 C 
BRANCH  17  18
HETATM   18  C11 UNK   900     -10.634   0.973   6.634  1.00  0.00     0.053 C 
BRANCH  18  19
HETATM   19  C12 UNK   900     -11.446   0.194   5.648  1.00  0.00    -0.018 C 
HETATM   20  C13 UNK   900     -12.548   0.810   5.067  1.00  0.00    -0.002 C 
HETATM   21  C14 UNK   900     -13.152   0.269   3.939  1.00  0.00     0.026 C 
HETATM   22  C15 UNK   900     -12.561  -0.797   3.272  1.00  0.00     0.116 C 
HETATM   23  C17 UNK   900     -11.343  -1.280   3.724  1.00  0.00     0.116 C 
HETATM   24  C19 UNK   900     -10.931  -0.907   4.977  1.00  0.00     0.022 C 
BRANCH  22  25
HETATM   25  O3  UNK   900     -13.230  -1.429   2.219  1.00  0.00    -0.326 OA
HETATM   26  C16 UNK   900     -14.217  -0.759   1.441  1.00  0.00     0.181 C 
ENDBRANCH  22  25
BRANCH  23  27
HETATM   27  O4  UNK   900     -10.496  -1.868   2.782  1.00  0.00    -0.326 OA
HETATM   28  C18 UNK   900      -9.351  -2.596   3.220  1.00  0.00     0.181 C 
ENDBRANCH  23  27
ENDBRANCH  18  19
ENDBRANCH  17  18
ENDBRANCH   3  17
TORSDOF 8
ENDMDL
MODEL 2
REMARK VINA RESULT:      -6.5     18.090     20.655
REMARK  8 active torsions:
REMARK  status: ('A' for Active; 'I' for Inactive)
REMARK    1  A    between atoms: O1_2  and  C2_3 
REMARK    2  A    between atoms: C5_6  and  C6_7 
REMARK    3  A    between atoms: C8_9  and  C9_10 
REMARK       I    between atoms: C9_10  and  N1_12 
REMARK    4  A    between atoms: N1_12  and  C10_13 
REMARK    5  A    between atoms: C10_13  and  C11_14 
REMARK    6  A    between atoms: C11_14  and  C12_15 
REMARK    7  A    between atoms: C15_18  and  O3_19 
REMARK    8  A    between atoms: C17_21  and  O4_22 
ROOT
HETATM    1  C9  UNK   900     -15.983 -16.252   9.014  1.00  0.00     0.294 C 
HETATM    2  O2  UNK   900     -15.054 -16.140   9.840  1.00  0.00    -0.264 OA
HETATM    3  N1  UNK   900     -16.753 -17.437   9.027  1.00  0.00    -0.233 NA
ENDROOT
BRANCH   1   4
HETATM    4  C8  UNK   900     -16.086 -15.263   7.936  1.00  0.00     0.162 C 
HETATM    5  C7  UNK   900     -15.444 -14.039   7.827  1.00  0.00     0.047 C 
HETATM    6  C6  UNK   900     -15.435 -13.695   6.504  1.00  0.00     0.105 C 
HETATM    7  N3  UNK   900     -15.817 -14.803   5.824  1.00  0.00    -0.148 NA
HETATM    8  N2  UNK   900     -16.388 -15.637   6.669  1.00  0.00    -0.143 NA
BRANCH   6   9
HETATM    9  C5  UNK   900     -15.401 -12.369   5.875  1.00  0.00     0.020 C 
HETATM   10  C4  UNK   900     -16.563 -11.692   5.529  1.00  0.00     0.004 C 
HETATM   11  C3  UNK   900     -16.669 -10.976   4.343  1.00  0.00     0.024 C 
HETATM   12  C2  UNK   900     -15.585 -10.898   3.477  1.00  0.00     0.094 C 
HETATM   13  C21 UNK   900     -14.351 -11.171   4.053  1.00  0.00     0.024 C 
HETATM   14  C20 UNK   900     -14.261 -11.971   5.186  1.00  0.00     0.004 C 
BRANCH  12  15
HETATM   15  O1  UNK   900     -15.782 -10.962   2.093  1.00  0.00    -0.328 OA
HETATM   16  C1  UNK   900     -14.762 -10.442   1.244  1.00  0.00     0.181 C 
ENDBRANCH  12  15
ENDBRANCH   6   9
ENDBRANCH   1   4
BRANCH   3  17
HETATM   17  C10 UNK   900     -17.153 -17.999  10.291  1.00  0.00     0.134 C 
BRANCH  17  18
HETATM   18  C11 UNK   900     -18.645 -18.103  10.453  1.00  0.00     0.053 C 
BRANCH  18  19
HETATM   19  C12 UNK   900     -18.999 -19.543  10.657  1.00  0.00    -0.018 C 
HETATM   20  C13 UNK   900     -19.039 -20.378   9.547  1.00  0.00    -0.002 C 
HETATM   21  C14 UNK   900     -19.054 -21.759   9.697  1.00  0.00     0.026 C 
HETATM   22  C15 UNK   900     -18.856 -22.330  10.948  1.00  0.00     0.116 C 
HETATM   23  C17 UNK   900     -18.599 -21.503  12.030  1.00  0.00     0.116 C 
HETATM   24  C19 UNK   900     -18.864 -20.165  11.892  1.00  0.00     0.022 C 
BRANCH  22  25
HETATM   25  O3  UNK   900     -19.004 -23.709  11.126  1.00  0.00    -0.326 OA
HETATM   26  C16 UNK   900     -18.155 -24.650  10.475  1.00  0.00     0.181 C 
ENDBRANCH  22  25
BRANCH  23  27
HETATM   27  O4  UNK   900     -17.832 -22.029  13.072  1.00  0.00    -0.326 OA
HETATM   28  C18 UNK   900     -18.427 -22.238  14.351  1.00  0.00     0.181 C 
ENDBRANCH  23  27
ENDBRANCH  18  19
ENDBRANCH  17  18
ENDBRANCH   3  17
TORSDOF 8
ENDMDL
MODEL 3
REMARK VINA RESULT:      -6.5     17.965     20.505
REMARK  8 active torsions:
REMARK  status: ('A' for Active; 'I' for Inactive)
REMARK    1  A    between atoms: O1_2  and  C2_3 
REMARK    2  A    between atoms: C5_6  and  C6_7 
REMARK    3  A    between atoms: C8_9  and  C9_10 
REMARK       I    between atoms: C9_10  and  N1_12 
REMARK    4  A    between atoms: N1_12  and  C10_13 
REMARK    5  A    between atoms: C10_13  and  C11_14 
REMARK    6  A    between atoms: C11_14  and  C12_15 
REMARK    7  A    between atoms: C15_18  and  O3_19 
REMARK    8  A    between atoms: C17_21  and  O4_22 
ROOT
HETATM    1  C9  UNK   900     -15.850 -16.000   8.899  1.00  0.00     0.294 C 
HETATM    2  O2  UNK   900     -14.781 -16.052   9.543  1.00  0.00    -0.264 OA
HETATM    3  N1  UNK   900     -16.819 -17.004   9.123  1.00  0.00    -0.233 NA
ENDROOT
BRANCH   1   4
HETATM    4  C8  UNK   900     -15.956 -15.044   7.791  1.00  0.00     0.162 C 
HETATM    5  C7  UNK   900     -15.394 -13.781   7.688  1.00  0.00     0.047 C 
HETATM    6  C6  UNK   900     -15.330 -13.467   6.359  1.00  0.00     0.105 C 
HETATM    7  N3  UNK   900     -15.594 -14.613   5.687  1.00  0.00    -0.148 NA
HETATM    8  N2  UNK   900     -16.156 -15.466   6.519  1.00  0.00    -0.143 NA
BRANCH   6   9
HETATM    9  C5  UNK   900     -15.349 -12.155   5.699  1.00  0.00     0.020 C 
HETATM   10  C4  UNK   900     -16.536 -11.545   5.316  1.00  0.00     0.004 C 
HETATM   11  C3  UNK   900     -16.655 -10.863   4.111  1.00  0.00     0.024 C 
HETATM   12  C2  UNK   900     -15.559 -10.751   3.263  1.00  0.00     0.094 C 
HETATM   13  C21 UNK   900     -14.325 -10.949   3.868  1.00  0.00     0.024 C 
HETATM   14  C20 UNK   900     -14.217 -11.718   5.021  1.00  0.00     0.004 C 
BRANCH  12  15
HETATM   15  O1  UNK   900     -15.727 -10.857   1.878  1.00  0.00    -0.328 OA
HETATM   16  C1  UNK   900     -14.701 -10.339   1.035  1.00  0.00     0.181 C 
ENDBRANCH  12  15
ENDBRANCH   6   9
ENDBRANCH   1   4
BRANCH   3  17
HETATM   17  C10 UNK   900     -17.081 -17.435  10.473  1.00  0.00     0.134 C 
BRANCH  17  18
HETATM   18  C11 UNK   900     -18.375 -18.188  10.618  1.00  0.00     0.053 C 
BRANCH  18  19
HETATM   19  C12 UNK   900     -18.216 -19.193  11.714  1.00  0.00    -0.018 C 
HETATM   20  C13 UNK   900     -17.703 -18.767  12.933  1.00  0.00    -0.002 C 
HETATM   21  C14 UNK   900     -17.816 -19.559  14.068  1.00  0.00     0.026 C 
HETATM   22  C15 UNK   900     -18.593 -20.710  14.044  1.00  0.00     0.116 C 
HETATM   23  C17 UNK   900     -19.287 -21.028  12.887  1.00  0.00     0.116 C 
HETATM   24  C19 UNK   900     -18.933 -20.384  11.730  1.00  0.00     0.022 C 
BRANCH  22  25
HETATM   25  O3  UNK   900     -18.603 -21.579  15.140  1.00  0.00    -0.326 OA
HETATM   26  C16 UNK   900     -19.283 -21.262  16.350  1.00  0.00     0.181 C 
ENDBRANCH  22  25
BRANCH  23  27
HETATM   27  O4  UNK   900     -20.470 -21.757  13.027  1.00  0.00    -0.326 OA
HETATM   28  C18 UNK   900     -20.553 -23.076  12.492  1.00  0.00     0.181 C 
ENDBRANCH  23  27
ENDBRANCH  18  19
ENDBRANCH  17  18
ENDBRANCH   3  17
TORSDOF 8
ENDMDL
MODEL 4
REMARK VINA RESULT:      -6.3     30.153     33.445
REMARK  8 active torsions:
REMARK  status: ('A' for Active; 'I' for Inactive)
REMARK    1  A    between atoms: O1_2  and  C2_3 
REMARK    2  A    between atoms: C5_6  and  C6_7 
REMARK    3  A    between atoms: C8_9  and  C9_10 
REMARK       I    between atoms: C9_10  and  N1_12 
REMARK    4  A    between atoms: N1_12  and  C10_13 
REMARK    5  A    between atoms: C10_13  and  C11_14 
REMARK    6  A    between atoms: C11_14  and  C12_15 
REMARK    7  A    between atoms: C15_18  and  O3_19 
REMARK    8  A    between atoms: C17_21  and  O4_22 
ROOT
HETATM    1  C9  UNK   900     -22.127 -17.143 -19.125  1.00  0.00     0.294 C 
HETATM    2  O2  UNK   900     -21.890 -18.060 -19.939  1.00  0.00    -0.264 OA
HETATM    3  N1  UNK   900     -22.520 -15.882 -19.630  1.00  0.00    -0.233 NA
ENDROOT
BRANCH   1   4
HETATM    4  C8  UNK   900     -21.772 -17.346 -17.717  1.00  0.00     0.162 C 
HETATM    5  C7  UNK   900     -22.490 -18.014 -16.737  1.00  0.00     0.047 C 
HETATM    6  C6  UNK   900     -21.607 -18.379 -15.758  1.00  0.00     0.105 C 
HETATM    7  N3  UNK   900     -20.370 -18.171 -16.269  1.00  0.00    -0.148 NA
HETATM    8  N2  UNK   900     -20.477 -17.383 -17.319  1.00  0.00    -0.143 NA
BRANCH   6   9
HETATM    9  C5  UNK   900     -21.830 -18.601 -14.324  1.00  0.00     0.020 C 
HETATM   10  C4  UNK   900     -21.185 -19.617 -13.631  1.00  0.00     0.004 C 
HETATM   11  C3  UNK   900     -21.839 -20.379 -12.670  1.00  0.00     0.024 C 
HETATM   12  C2  UNK   900     -23.168 -20.116 -12.358  1.00  0.00     0.094 C 
HETATM   13  C21 UNK   900     -23.614 -18.848 -12.707  1.00  0.00     0.024 C 
HETATM   14  C20 UNK   900     -23.005 -18.143 -13.738  1.00  0.00     0.004 C 
BRANCH  12  15
HETATM   15  O1  UNK   900     -24.057 -21.170 -12.117  1.00  0.00    -0.328 OA
HETATM   16  C1  UNK   900     -23.995 -22.310 -12.969  1.00  0.00     0.181 C 
ENDBRANCH  12  15
ENDBRANCH   6   9
ENDBRANCH   1   4
BRANCH   3  17
HETATM   17  C10 UNK   900     -23.462 -15.826 -20.718  1.00  0.00     0.134 C 
BRANCH  17  18
HETATM   18  C11 UNK   900     -24.866 -16.179 -20.309  1.00  0.00     0.053 C 
BRANCH  18  19
HETATM   19  C12 UNK   900     -25.813 -15.554 -21.285  1.00  0.00    -0.018 C 
HETATM   20  C13 UNK   900     -25.301 -15.049 -22.473  1.00  0.00    -0.002 C 
HETATM   21  C14 UNK   900     -26.141 -14.743 -23.536  1.00  0.00     0.026 C 
HETATM   22  C15 UNK   900     -27.483 -15.098 -23.493  1.00  0.00     0.116 C 
HETATM   23  C17 UNK   900     -27.957 -15.799 -22.395  1.00  0.00     0.116 C 
HETATM   24  C19 UNK   900     -27.174 -15.834 -21.270  1.00  0.00     0.022 C 
BRANCH  22  25
HETATM   25  O3  UNK   900     -28.359 -14.675 -24.498  1.00  0.00    -0.326 OA
HETATM   26  C16 UNK   900     -28.475 -15.366 -25.738  1.00  0.00     0.181 C 
ENDBRANCH  22  25
BRANCH  23  27
HETATM   27  O4  UNK   900     -29.047 -16.649 -22.596  1.00  0.00    -0.326 OA
HETATM   28  C18 UNK   900     -28.824 -17.996 -23.006  1.00  0.00     0.181 C 
ENDBRANCH  23  27
ENDBRANCH  18  19
ENDBRANCH  17  18
ENDBRANCH   3  17
TORSDOF 8
ENDMDL
MODEL 5
REMARK VINA RESULT:      -6.2     30.273     33.386
REMARK  8 active torsions:
REMARK  status: ('A' for Active; 'I' for Inactive)
REMARK    1  A    between atoms: O1_2  and  C2_3 
REMARK    2  A    between atoms: C5_6  and  C6_7 
REMARK    3  A    between atoms: C8_9  and  C9_10 
REMARK       I    between atoms: C9_10  and  N1_12 
REMARK    4  A    between atoms: N1_12  and  C10_13 
REMARK    5  A    between atoms: C10_13  and  C11_14 
REMARK    6  A    between atoms: C11_14  and  C12_15 
REMARK    7  A    between atoms: C15_18  and  O3_19 
REMARK    8  A    between atoms: C17_21  and  O4_22 
ROOT
HETATM    1  C9  UNK   900     -21.300 -17.323 -19.078  1.00  0.00     0.294 C 
HETATM    2  O2  UNK   900     -21.086 -18.382 -19.705  1.00  0.00    -0.264 OA
HETATM    3  N1  UNK   900     -21.224 -16.100 -19.782  1.00  0.00    -0.233 NA
ENDROOT
BRANCH   1   4
HETATM    4  C8  UNK   900     -21.393 -17.381 -17.616  1.00  0.00     0.162 C 
HETATM    5  C7  UNK   900     -22.490 -17.711 -16.836  1.00  0.00     0.047 C 
HETATM    6  C6  UNK   900     -22.022 -18.109 -15.614  1.00  0.00     0.105 C 
HETATM    7  N3  UNK   900     -20.684 -18.267 -15.756  1.00  0.00    -0.148 NA
HETATM    8  N2  UNK   900     -20.303 -17.647 -16.854  1.00  0.00    -0.143 NA
BRANCH   6   9
HETATM    9  C5  UNK   900     -22.664 -18.050 -14.294  1.00  0.00     0.020 C 
HETATM   10  C4  UNK   900     -22.531 -19.078 -13.369  1.00  0.00     0.004 C 
HETATM   11  C3  UNK   900     -23.599 -19.502 -12.586  1.00  0.00     0.024 C 
HETATM   12  C2  UNK   900     -24.834 -18.876 -12.696  1.00  0.00     0.094 C 
HETATM   13  C21 UNK   900     -24.803 -17.604 -13.254  1.00  0.00     0.024 C 
HETATM   14  C20 UNK   900     -23.774 -17.235 -14.113  1.00  0.00     0.004 C 
BRANCH  12  15
HETATM   15  O1  UNK   900     -26.013 -19.629 -12.645  1.00  0.00    -0.328 OA
HETATM   16  C1  UNK   900     -26.319 -20.317 -11.435  1.00  0.00     0.181 C 
ENDBRANCH  12  15
ENDBRANCH   6   9
ENDBRANCH   1   4
BRANCH   3  17
HETATM   17  C10 UNK   900     -21.800 -16.012 -21.099  1.00  0.00     0.134 C 
BRANCH  17  18
HETATM   18  C11 UNK   900     -23.287 -15.787 -21.085  1.00  0.00     0.053 C 
BRANCH  18  19
HETATM   19  C12 UNK   900     -23.703 -15.294 -22.435  1.00  0.00    -0.018 C 
HETATM   20  C13 UNK   900     -23.116 -15.864 -23.558  1.00  0.00    -0.002 C 
HETATM   21  C14 UNK   900     -23.665 -15.678 -24.820  1.00  0.00     0.026 C 
HETATM   22  C15 UNK   900     -24.904 -15.065 -24.960  1.00  0.00     0.116 C 
HETATM   23  C17 UNK   900     -25.598 -14.685 -23.823  1.00  0.00     0.116 C 
HETATM   24  C19 UNK   900     -24.910 -14.636 -22.638  1.00  0.00     0.022 C 
BRANCH  22  25
HETATM   25  O3  UNK   900     -25.399 -14.757 -26.232  1.00  0.00    -0.326 OA
HETATM   26  C16 UNK   900     -24.546 -14.638 -27.366  1.00  0.00     0.181 C 
ENDBRANCH  22  25
BRANCH  23  27
HETATM   27  O4  UNK   900     -26.993 -14.657 -23.900  1.00  0.00    -0.326 OA
HETATM   28  C18 UNK   900     -27.770 -15.069 -22.778  1.00  0.00     0.181 C 
ENDBRANCH  23  27
ENDBRANCH  18  19
ENDBRANCH  17  18
ENDBRANCH   3  17
TORSDOF 8
ENDMDL
MODEL 6
REMARK VINA RESULT:      -6.2     29.355     31.222
REMARK  8 active torsions:
REMARK  status: ('A' for Active; 'I' for Inactive)
REMARK    1  A    between atoms: O1_2  and  C2_3 
REMARK    2  A    between atoms: C5_6  and  C6_7 
REMARK    3  A    between atoms: C8_9  and  C9_10 
REMARK       I    between atoms: C9_10  and  N1_12 
REMARK    4  A    between atoms: N1_12  and  C10_13 
REMARK    5  A    between atoms: C10_13  and  C11_14 
REMARK    6  A    between atoms: C11_14  and  C12_15 
REMARK    7  A    between atoms: C15_18  and  O3_19 
REMARK    8  A    between atoms: C17_21  and  O4_22 
ROOT
HETATM    1  C9  UNK   900     -21.833 -18.849 -14.180  1.00  0.00     0.294 C 
HETATM    2  O2  UNK   900     -20.751 -19.224 -13.682  1.00  0.00    -0.264 OA
HETATM    3  N1  UNK   900     -23.035 -19.252 -13.554  1.00  0.00    -0.233 NA
ENDROOT
BRANCH   1   4
HETATM    4  C8  UNK   900     -21.814 -18.211 -15.500  1.00  0.00     0.162 C 
HETATM    5  C7  UNK   900     -22.665 -17.234 -15.996  1.00  0.00     0.047 C 
HETATM    6  C6  UNK   900     -22.014 -16.601 -17.018  1.00  0.00     0.105 C 
HETATM    7  N3  UNK   900     -20.723 -17.008 -16.952  1.00  0.00    -0.148 NA
HETATM    8  N2  UNK   900     -20.662 -18.091 -16.204  1.00  0.00    -0.143 NA
BRANCH   6   9
HETATM    9  C5  UNK   900     -22.554 -15.916 -18.199  1.00  0.00     0.020 C 
HETATM   10  C4  UNK   900     -23.894 -16.011 -18.551  1.00  0.00     0.004 C 
HETATM   11  C3  UNK   900     -24.297 -16.140 -19.875  1.00  0.00     0.024 C 
HETATM   12  C2  UNK   900     -23.351 -16.148 -20.893  1.00  0.00     0.094 C 
HETATM   13  C21 UNK   900     -22.121 -15.596 -20.558  1.00  0.00     0.024 C 
HETATM   14  C20 UNK   900     -21.697 -15.566 -19.235  1.00  0.00     0.004 C 
BRANCH  12  15
HETATM   15  O1  UNK   900     -23.499 -17.011 -21.985  1.00  0.00    -0.328 OA
HETATM   16  C1  UNK   900     -22.373 -17.218 -22.834  1.00  0.00     0.181 C 
ENDBRANCH  12  15
ENDBRANCH   6   9
ENDBRANCH   1   4
BRANCH   3  17
HETATM   17  C10 UNK   900     -23.121 -19.218 -12.117  1.00  0.00     0.134 C 
BRANCH  17  18
HETATM   18  C11 UNK   900     -24.193 -18.296 -11.605  1.00  0.00     0.053 C 
BRANCH  18  19
HETATM   19  C12 UNK   900     -25.082 -19.071 -10.683  1.00  0.00    -0.018 C 
HETATM   20  C13 UNK   900     -25.035 -18.785  -9.324  1.00  0.00    -0.002 C 
HETATM   21  C14 UNK   900     -26.031 -19.236  -8.468  1.00  0.00     0.026 C 
HETATM   22  C15 UNK   900     -27.178 -19.830  -8.980  1.00  0.00     0.116 C 
HETATM   23  C17 UNK   900     -27.330 -19.924 -10.354  1.00  0.00     0.116 C 
HETATM   24  C19 UNK   900     -26.222 -19.723 -11.136  1.00  0.00     0.022 C 
BRANCH  22  25
HETATM   25  O3  UNK   900     -28.120 -20.404  -8.120  1.00  0.00    -0.326 OA
HETATM   26  C16 UNK   900     -28.942 -19.615  -7.265  1.00  0.00     0.181 C 
ENDBRANCH  22  25
BRANCH  23  27
HETATM   27  O4  UNK   900     -28.632 -19.930 -10.858  1.00  0.00    -0.326 OA
HETATM   28  C18 UNK   900     -28.853 -20.211 -12.239  1.00  0.00     0.181 C 
ENDBRANCH  23  27
ENDBRANCH  18  19
ENDBRANCH  17  18
ENDBRANCH   3  17
TORSDOF 8
ENDMDL
MODEL 7
REMARK VINA RESULT:      -6.1     29.456     33.095
REMARK  8 active torsions:
REMARK  status: ('A' for Active; 'I' for Inactive)
REMARK    1  A    between atoms: O1_2  and  C2_3 
REMARK    2  A    between atoms: C5_6  and  C6_7 
REMARK    3  A    between atoms: C8_9  and  C9_10 
REMARK       I    between atoms: C9_10  and  N1_12 
REMARK    4  A    between atoms: N1_12  and  C10_13 
REMARK    5  A    between atoms: C10_13  and  C11_14 
REMARK    6  A    between atoms: C11_14  and  C12_15 
REMARK    7  A    between atoms: C15_18  and  O3_19 
REMARK    8  A    between atoms: C17_21  and  O4_22 
ROOT
HETATM    1  C9  UNK   900     -22.063 -16.236 -18.478  1.00  0.00     0.294 C 
HETATM    2  O2  UNK   900     -20.849 -16.103 -18.739  1.00  0.00    -0.264 OA
HETATM    3  N1  UNK   900     -23.005 -15.903 -19.477  1.00  0.00    -0.233 NA
ENDROOT
BRANCH   1   4
HETATM    4  C8  UNK   900     -22.455 -16.510 -17.092  1.00  0.00     0.162 C 
HETATM    5  C7  UNK   900     -23.679 -16.957 -16.617  1.00  0.00     0.047 C 
HETATM    6  C6  UNK   900     -23.462 -17.530 -15.395  1.00  0.00     0.105 C 
HETATM    7  N3  UNK   900     -22.119 -17.659 -15.272  1.00  0.00    -0.148 NA
HETATM    8  N2  UNK   900     -21.540 -16.882 -16.164  1.00  0.00    -0.143 NA
BRANCH   6   9
HETATM    9  C5  UNK   900     -24.366 -17.670 -14.246  1.00  0.00     0.020 C 
HETATM   10  C4  UNK   900     -24.168 -16.962 -13.068  1.00  0.00     0.004 C 
HETATM   11  C3  UNK   900     -24.366 -17.543 -11.821  1.00  0.00     0.024 C 
HETATM   12  C2  UNK   900     -24.800 -18.860 -11.727  1.00  0.00     0.094 C 
HETATM   13  C21 UNK   900     -25.417 -19.359 -12.867  1.00  0.00     0.024 C 
HETATM   14  C20 UNK   900     -25.130 -18.824 -14.118  1.00  0.00     0.004 C 
BRANCH  12  15
HETATM   15  O1  UNK   900     -24.278 -19.706 -10.742  1.00  0.00    -0.328 OA
HETATM   16  C1  UNK   900     -23.583 -20.877 -11.162  1.00  0.00     0.181 C 
ENDBRANCH  12  15
ENDBRANCH   6   9
ENDBRANCH   1   4
BRANCH   3  17
HETATM   17  C10 UNK   900     -22.752 -16.299 -20.839  1.00  0.00     0.134 C 
BRANCH  17  18
HETATM   18  C11 UNK   900     -23.025 -15.208 -21.838  1.00  0.00     0.053 C 
BRANCH  18  19
HETATM   19  C12 UNK   900     -24.504 -15.114 -22.042  1.00  0.00    -0.018 C 
HETATM   20  C13 UNK   900     -24.974 -14.578 -23.235  1.00  0.00    -0.002 C 
HETATM   21  C14 UNK   900     -26.300 -14.742 -23.615  1.00  0.00     0.026 C 
HETATM   22  C15 UNK   900     -27.135 -15.588 -22.896  1.00  0.00     0.116 C 
HETATM   23  C17 UNK   900     -26.612 -16.296 -21.825  1.00  0.00     0.116 C 
HETATM   24  C19 UNK   900     -25.398 -15.901 -21.327  1.00  0.00     0.022 C 
BRANCH  22  25
HETATM   25  O3  UNK   900     -28.500 -15.652 -23.192  1.00  0.00    -0.326 OA
HETATM   26  C16 UNK   900     -29.033 -15.144 -24.411  1.00  0.00     0.181 C 
ENDBRANCH  22  25
BRANCH  23  27
HETATM   27  O4  UNK   900     -27.205 -17.522 -21.514  1.00  0.00    -0.326 OA
HETATM   28  C18 UNK   900     -26.484 -18.732 -21.737  1.00  0.00     0.181 C 
ENDBRANCH  23  27
ENDBRANCH  18  19
ENDBRANCH  17  18
ENDBRANCH   3  17
TORSDOF 8
ENDMDL
MODEL 8
REMARK VINA RESULT:      -5.9     35.589     38.806
REMARK  8 active torsions:
REMARK  status: ('A' for Active; 'I' for Inactive)
REMARK    1  A    between atoms: O1_2  and  C2_3 
REMARK    2  A    between atoms: C5_6  and  C6_7 
REMARK    3  A    between atoms: C8_9  and  C9_10 
REMARK       I    between atoms: C9_10  and  N1_12 
REMARK    4  A    between atoms: N1_12  and  C10_13 
REMARK    5  A    between atoms: C10_13  and  C11_14 
REMARK    6  A    between atoms: C11_14  and  C12_15 
REMARK    7  A    between atoms: C15_18  and  O3_19 
REMARK    8  A    between atoms: C17_21  and  O4_22 
ROOT
HETATM    1  C9  UNK   900     -37.193  17.667 -14.524  1.00  0.00     0.294 C 
HETATM    2  O2  UNK   900     -37.872  18.140 -15.460  1.00  0.00    -0.264 OA
HETATM    3  N1  UNK   900     -35.786  17.642 -14.661  1.00  0.00    -0.233 NA
ENDROOT
BRANCH   1   4
HETATM    4  C8  UNK   900     -37.886  16.961 -13.442  1.00  0.00     0.162 C 
HETATM    5  C7  UNK   900     -38.553  15.747 -13.496  1.00  0.00     0.047 C 
HETATM    6  C6  UNK   900     -38.607  15.251 -12.223  1.00  0.00     0.105 C 
HETATM    7  N3  UNK   900     -37.766  16.014 -11.484  1.00  0.00    -0.148 NA
HETATM    8  N2  UNK   900     -37.514  17.123 -12.149  1.00  0.00    -0.143 NA
BRANCH   6   9
HETATM    9  C5  UNK   900     -39.588  14.350 -11.603  1.00  0.00     0.020 C 
HETATM   10  C4  UNK   900     -40.002  13.179 -12.225  1.00  0.00     0.004 C 
HETATM   11  C3  UNK   900     -41.329  12.763 -12.196  1.00  0.00     0.024 C 
HETATM   12  C2  UNK   900     -42.278  13.510 -11.508  1.00  0.00     0.094 C 
HETATM   13  C21 UNK   900     -41.765  14.371 -10.547  1.00  0.00     0.024 C 
HETATM   14  C20 UNK   900     -40.465  14.852 -10.649  1.00  0.00     0.004 C 
BRANCH  12  15
HETATM   15  O1  UNK   900     -43.562  13.678 -12.039  1.00  0.00    -0.328 OA
HETATM   16  C1  UNK   900     -43.853  13.073 -13.296  1.00  0.00     0.181 C 
ENDBRANCH  12  15
ENDBRANCH   6   9
ENDBRANCH   1   4
BRANCH   3  17
HETATM   17  C10 UNK   900     -35.117  18.789 -15.220  1.00  0.00     0.134 C 
BRANCH  17  18
HETATM   18  C11 UNK   900     -33.628  18.772 -15.008  1.00  0.00     0.053 C 
BRANCH  18  19
HETATM   19  C12 UNK   900     -33.307  19.644 -13.836  1.00  0.00    -0.018 C 
HETATM   20  C13 UNK   900     -32.539  19.112 -12.807  1.00  0.00    -0.002 C 
HETATM   21  C14 UNK   900     -31.954  19.939 -11.856  1.00  0.00     0.026 C 
HETATM   22  C15 UNK   900     -31.983  21.319 -12.015  1.00  0.00     0.116 C 
HETATM   23  C17 UNK   900     -32.563  21.851 -13.156  1.00  0.00     0.116 C 
HETATM   24  C19 UNK   900     -33.356  21.030 -13.914  1.00  0.00     0.022 C 
BRANCH  22  25
HETATM   25  O3  UNK   900     -31.515  22.157 -10.998  1.00  0.00    -0.326 OA
HETATM   26  C16 UNK   900     -32.395  22.774 -10.064  1.00  0.00     0.181 C 
ENDBRANCH  22  25
BRANCH  23  27
HETATM   27  O4  UNK   900     -32.080  23.082 -13.608  1.00  0.00    -0.326 OA
HETATM   28  C18 UNK   900     -32.881  23.877 -14.478  1.00  0.00     0.181 C 
ENDBRANCH  23  27
ENDBRANCH  18  19
ENDBRANCH  17  18
ENDBRANCH   3  17
TORSDOF 8
ENDMDL
MODEL 9
REMARK VINA RESULT:      -5.8     18.578     21.080
REMARK  8 active torsions:
REMARK  status: ('A' for Active; 'I' for Inactive)
REMARK    1  A    between atoms: O1_2  and  C2_3 
REMARK    2  A    between atoms: C5_6  and  C6_7 
REMARK    3  A    between atoms: C8_9  and  C9_10 
REMARK       I    between atoms: C9_10  and  N1_12 
REMARK    4  A    between atoms: N1_12  and  C10_13 
REMARK    5  A    between atoms: C10_13  and  C11_14 
REMARK    6  A    between atoms: C11_14  and  C12_15 
REMARK    7  A    between atoms: C15_18  and  O3_19 
REMARK    8  A    between atoms: C17_21  and  O4_22 
ROOT
HETATM    1  C9  UNK   900     -15.831 -17.093   9.706  1.00  0.00     0.294 C 
HETATM    2  O2  UNK   900     -14.680 -17.487   9.987  1.00  0.00    -0.264 OA
HETATM    3  N1  UNK   900     -16.925 -17.920  10.046  1.00  0.00    -0.233 NA
ENDROOT
BRANCH   1   4
HETATM    4  C8  UNK   900     -15.978 -15.915   8.846  1.00  0.00     0.162 C 
HETATM    5  C7  UNK   900     -15.035 -14.943   8.549  1.00  0.00     0.047 C 
HETATM    6  C6  UNK   900     -15.412 -14.347   7.378  1.00  0.00     0.105 C 
HETATM    7  N3  UNK   900     -16.396 -15.121   6.860  1.00  0.00    -0.148 NA
HETATM    8  N2  UNK   900     -16.856 -15.906   7.813  1.00  0.00    -0.143 NA
BRANCH   6   9
HETATM    9  C5  UNK   900     -15.149 -12.989   6.883  1.00  0.00     0.020 C 
HETATM   10  C4  UNK   900     -16.163 -12.184   6.380  1.00  0.00     0.004 C 
HETATM   11  C3  UNK   900     -15.974 -11.380   5.262  1.00  0.00     0.024 C 
HETATM   12  C2  UNK   900     -14.736 -11.346   4.630  1.00  0.00     0.094 C 
HETATM   13  C21 UNK   900     -13.667 -11.773   5.407  1.00  0.00     0.024 C 
HETATM   14  C20 UNK   900     -13.868 -12.654   6.463  1.00  0.00     0.004 C 
BRANCH  12  15
HETATM   15  O1  UNK   900     -14.659 -11.295   3.234  1.00  0.00    -0.328 OA
HETATM   16  C1  UNK   900     -15.346 -10.244   2.560  1.00  0.00     0.181 C 
ENDBRANCH  12  15
ENDBRANCH   6   9
ENDBRANCH   1   4
BRANCH   3  17
HETATM   17  C10 UNK   900     -16.933 -18.579  11.327  1.00  0.00     0.134 C 
BRANCH  17  18
HETATM   18  C11 UNK   900     -18.187 -19.370  11.583  1.00  0.00     0.053 C 
BRANCH  18  19
HETATM   19  C12 UNK   900     -18.124 -19.919  12.973  1.00  0.00    -0.018 C 
HETATM   20  C13 UNK   900     -17.245 -19.334  13.877  1.00  0.00    -0.002 C 
HETATM   21  C14 UNK   900     -17.355 -19.583  15.238  1.00  0.00     0.026 C 
HETATM   22  C15 UNK   900     -18.448 -20.282  15.737  1.00  0.00     0.116 C 
HETATM   23  C17 UNK   900     -19.443 -20.685  14.861  1.00  0.00     0.116 C 
HETATM   24  C19 UNK   900     -19.164 -20.662  13.519  1.00  0.00     0.022 C 
BRANCH  22  25
HETATM   25  O3  UNK   900     -18.495 -20.650  17.085  1.00  0.00    -0.326 OA
HETATM   26  C16 UNK   900     -18.547 -19.684  18.130  1.00  0.00     0.181 C 
ENDBRANCH  22  25
BRANCH  23  27
HETATM   27  O4  UNK   900     -20.737 -20.810  15.372  1.00  0.00    -0.326 OA
HETATM   28  C18 UNK   900     -21.590 -19.668  15.421  1.00  0.00     0.181 C 
ENDBRANCH  23  27
ENDBRANCH  18  19
ENDBRANCH  17  18
ENDBRANCH   3  17
TORSDOF 8
ENDMDL
