MODEL 1
REMARK VINA RESULT:      -6.1      0.000      0.000
REMARK  3 active torsions:
REMARK  status: ('A' for Active; 'I' for Inactive)
REMARK    1  A    between atoms: C9_10  and  N2_11 
REMARK       I    between atoms: N2_11  and  C10_12 
REMARK    2  A    between atoms: C10_12  and  C11_14 
REMARK    3  A    between atoms: C11_14  and  N3_15 
ROOT
HETATM    1  N2  UNK   900      -5.000  -7.138  17.546  1.00  0.00    -0.210 NA
HETATM    2  C10 UNK   900      -4.001  -6.827  18.526  1.00  0.00     0.279 C 
HETATM    3  O1  UNK   900      -3.394  -7.834  19.000  1.00  0.00    -0.268 OA
ENDROOT
BRANCH   2   4
HETATM    4  C11 UNK   900      -3.112  -5.678  18.163  1.00  0.00     0.197 C 
BRANCH   4   5
HETATM    5  N3  UNK   900      -3.818  -4.467  18.566  1.00  0.00    -0.318 N 
HETATM    6  C12 UNK   900      -4.405  -4.178  19.740  1.00  0.00     0.076 C 
HETATM    7  C13 UNK   900      -4.537  -2.796  19.806  1.00  0.00     0.020 C 
HETATM    8  C14 UNK   900      -4.415  -2.308  18.512  1.00  0.00     0.017 C 
HETATM    9  C15 UNK   900      -5.025  -1.291  17.796  1.00  0.00     0.002 C 
HETATM   10  C19 UNK   900      -3.959  -3.392  17.776  1.00  0.00     0.060 C 
HETATM   11  C16 UNK   900      -4.494  -1.027  16.540  1.00  0.00     0.000 C 
HETATM   12  C17 UNK   900      -3.834  -2.006  15.813  1.00  0.00     0.002 C 
HETATM   13  C18 UNK   900      -3.612  -3.197  16.445  1.00  0.00     0.017 C 
ENDBRANCH   4   5
ENDBRANCH   2   4
BRANCH   1  14
HETATM   14  C9  UNK   900      -5.944  -8.148  17.898  1.00  0.00     0.086 C 
HETATM   15  C4  UNK   900      -6.929  -7.772  18.803  1.00  0.00     0.035 C 
HETATM   16  C3  UNK   900      -7.663  -6.612  19.001  1.00  0.00     0.022 C 
HETATM   17  C5  UNK   900      -7.486  -8.676  19.700  1.00  0.00     0.061 C 
HETATM   18  C2  UNK   900      -8.391  -6.797  20.169  1.00  0.00     0.076 C 
HETATM   19  N1  UNK   900      -8.082  -8.000  20.713  1.00  0.00    -0.324 N 
HETATM   20  C1  UNK   900      -8.146  -8.356  22.109  1.00  0.00     0.131 C 
HETATM   21  C6  UNK   900      -7.114 -10.002  19.582  1.00  0.00     0.017 C 
HETATM   22  C7  UNK   900      -6.469 -10.440  18.430  1.00  0.00     0.003 C 
HETATM   23  C8  UNK   900      -5.700  -9.492  17.773  1.00  0.00     0.019 C 
ENDBRANCH   1  14
TORSDOF 3
ENDMDL
MODEL 2
REMARK VINA RESULT:      -6.0     49.094     51.422
REMARK  3 active torsions:
REMARK  status: ('A' for Active; 'I' for Inactive)
REMARK    1  A    between atoms: C9_10  and  N2_11 
REMARK       I    between atoms: N2_11  and  C10_12 
REMARK    2  A    between atoms: C10_12  and  C11_14 
REMARK    3  A    between atoms: C11_14  and  N3_15 
ROOT
HETATM    1  N2  UNK   900     -18.488  -0.825 -30.662  1.00  0.00    -0.210 NA
HETATM    2  C10 UNK   900     -18.381  -2.188 -31.094  1.00  0.00     0.279 C 
HETATM    3  O1  UNK   900     -18.634  -2.372 -32.324  1.00  0.00    -0.268 OA
ENDROOT
BRANCH   2   4
HETATM    4  C11 UNK   900     -17.167  -2.905 -30.594  1.00  0.00     0.197 C 
BRANCH   4   5
HETATM    5  N3  UNK   900     -16.069  -1.947 -30.652  1.00  0.00    -0.318 N 
HETATM    6  C12 UNK   900     -15.449  -1.432 -31.728  1.00  0.00     0.076 C 
HETATM    7  C13 UNK   900     -14.809  -0.268 -31.316  1.00  0.00     0.020 C 
HETATM    8  C14 UNK   900     -14.702  -0.323 -29.933  1.00  0.00     0.017 C 
HETATM    9  C15 UNK   900     -13.736   0.059 -29.018  1.00  0.00     0.002 C 
HETATM   10  C19 UNK   900     -15.512  -1.388 -29.567  1.00  0.00     0.060 C 
HETATM   11  C16 UNK   900     -14.093  -0.036 -27.679  1.00  0.00     0.000 C 
HETATM   12  C17 UNK   900     -15.052  -0.938 -27.248  1.00  0.00     0.002 C 
HETATM   13  C18 UNK   900     -15.723  -1.632 -28.216  1.00  0.00     0.017 C 
ENDBRANCH   4   5
ENDBRANCH   2   4
BRANCH   1  14
HETATM   14  C9  UNK   900     -19.685  -0.136 -31.016  1.00  0.00     0.086 C 
HETATM   15  C4  UNK   900     -19.519   1.048 -31.725  1.00  0.00     0.035 C 
HETATM   16  C3  UNK   900     -18.646   1.460 -32.720  1.00  0.00     0.022 C 
HETATM   17  C5  UNK   900     -20.410   2.108 -31.603  1.00  0.00     0.061 C 
HETATM   18  C2  UNK   900     -18.881   2.815 -32.919  1.00  0.00     0.076 C 
HETATM   19  N1  UNK   900     -19.822   3.247 -32.043  1.00  0.00    -0.324 N 
HETATM   20  C1  UNK   900     -19.965   4.585 -31.526  1.00  0.00     0.131 C 
HETATM   21  C6  UNK   900     -21.544   1.902 -30.840  1.00  0.00     0.017 C 
HETATM   22  C7  UNK   900     -21.915   0.610 -30.485  1.00  0.00     0.003 C 
HETATM   23  C8  UNK   900     -20.878  -0.302 -30.360  1.00  0.00     0.019 C 
ENDBRANCH   1  14
TORSDOF 3
ENDMDL
MODEL 3
REMARK VINA RESULT:      -5.9     52.335     53.704
REMARK  3 active torsions:
REMARK  status: ('A' for Active; 'I' for Inactive)
REMARK    1  A    between atoms: C9_10  and  N2_11 
REMARK       I    between atoms: N2_11  and  C10_12 
REMARK    2  A    between atoms: C10_12  and  C11_14 
REMARK    3  A    between atoms: C11_14  and  N3_15 
ROOT
HETATM    1  N2  UNK   900     -44.929   8.256 -15.579  1.00  0.00    -0.210 NA
HETATM    2  C10 UNK   900     -43.554   8.283 -15.176  1.00  0.00     0.279 C 
HETATM    3  O1  UNK   900     -42.795   8.963 -15.933  1.00  0.00    -0.268 OA
ENDROOT
BRANCH   2   4
HETATM    4  C11 UNK   900     -43.340   8.512 -13.713  1.00  0.00     0.197 C 
BRANCH   4   5
HETATM    5  N3  UNK   900     -42.937   7.228 -13.149  1.00  0.00    -0.318 N 
HETATM    6  C12 UNK   900     -42.413   6.157 -13.768  1.00  0.00     0.076 C 
HETATM    7  C13 UNK   900     -41.794   5.381 -12.795  1.00  0.00     0.020 C 
HETATM    8  C14 UNK   900     -42.307   5.773 -11.566  1.00  0.00     0.017 C 
HETATM    9  C15 UNK   900     -42.648   5.108 -10.400  1.00  0.00     0.002 C 
HETATM   10  C19 UNK   900     -43.012   6.935 -11.842  1.00  0.00     0.060 C 
HETATM   11  C16 UNK   900     -42.995   5.910  -9.321  1.00  0.00     0.000 C 
HETATM   12  C17 UNK   900     -43.520   7.180  -9.503  1.00  0.00     0.002 C 
HETATM   13  C18 UNK   900     -43.551   7.655 -10.784  1.00  0.00     0.017 C 
ENDBRANCH   4   5
ENDBRANCH   2   4
BRANCH   1  14
HETATM   14  C9  UNK   900     -45.187   7.925 -16.943  1.00  0.00     0.086 C 
HETATM   15  C4  UNK   900     -45.911   8.861 -17.670  1.00  0.00     0.035 C 
HETATM   16  C3  UNK   900     -45.935  10.248 -17.703  1.00  0.00     0.022 C 
HETATM   17  C5  UNK   900     -46.760   8.489 -18.706  1.00  0.00     0.061 C 
HETATM   18  C2  UNK   900     -46.987  10.608 -18.534  1.00  0.00     0.076 C 
HETATM   19  N1  UNK   900     -47.634   9.494 -18.958  1.00  0.00    -0.324 N 
HETATM   20  C1  UNK   900     -49.021   9.399 -19.341  1.00  0.00     0.131 C 
HETATM   21  C6  UNK   900     -46.771   7.157 -19.074  1.00  0.00     0.017 C 
HETATM   22  C7  UNK   900     -45.755   6.312 -18.642  1.00  0.00     0.003 C 
HETATM   23  C8  UNK   900     -45.172   6.642 -17.428  1.00  0.00     0.019 C 
ENDBRANCH   1  14
TORSDOF 3
ENDMDL
MODEL 4
REMARK VINA RESULT:      -5.8     60.078     61.263
REMARK  3 active torsions:
REMARK  status: ('A' for Active; 'I' for Inactive)
REMARK    1  A    between atoms: C9_10  and  N2_11 
REMARK       I    between atoms: N2_11  and  C10_12 
REMARK    2  A    between atoms: C10_12  and  C11_14 
REMARK    3  A    between atoms: C11_14  and  N3_15 
ROOT
HETATM    1  N2  UNK   900     -44.247   1.910 -29.463  1.00  0.00    -0.210 NA
HETATM    2  C10 UNK   900     -44.022   0.572 -29.925  1.00  0.00     0.279 C 
HETATM    3  O1  UNK   900     -45.070  -0.136 -30.025  1.00  0.00    -0.268 OA
ENDROOT
BRANCH   2   4
HETATM    4  C11 UNK   900     -43.086   0.466 -31.088  1.00  0.00     0.197 C 
BRANCH   4   5
HETATM    5  N3  UNK   900     -41.747   0.710 -30.564  1.00  0.00    -0.318 N 
HETATM    6  C12 UNK   900     -41.247   0.427 -29.349  1.00  0.00     0.076 C 
HETATM    7  C13 UNK   900     -39.861   0.424 -29.465  1.00  0.00     0.020 C 
HETATM    8  C14 UNK   900     -39.543   1.108 -30.629  1.00  0.00     0.017 C 
HETATM    9  C15 UNK   900     -38.532   1.981 -30.997  1.00  0.00     0.002 C 
HETATM   10  C19 UNK   900     -40.756   1.260 -31.283  1.00  0.00     0.060 C 
HETATM   11  C16 UNK   900     -38.490   2.334 -32.340  1.00  0.00     0.000 C 
HETATM   12  C17 UNK   900     -39.629   2.315 -33.129  1.00  0.00     0.002 C 
HETATM   13  C18 UNK   900     -40.763   1.806 -32.561  1.00  0.00     0.017 C 
ENDBRANCH   4   5
ENDBRANCH   2   4
BRANCH   1  14
HETATM   14  C9  UNK   900     -45.039   2.053 -28.285  1.00  0.00     0.086 C 
HETATM   15  C4  UNK   900     -44.714   1.212 -27.228  1.00  0.00     0.035 C 
HETATM   16  C3  UNK   900     -43.520   0.727 -26.714  1.00  0.00     0.022 C 
HETATM   17  C5  UNK   900     -45.672   0.760 -26.328  1.00  0.00     0.061 C 
HETATM   18  C2  UNK   900     -43.855  -0.200 -25.737  1.00  0.00     0.076 C 
HETATM   19  N1  UNK   900     -45.203  -0.335 -25.680  1.00  0.00    -0.324 N 
HETATM   20  C1  UNK   900     -45.934  -1.504 -25.256  1.00  0.00     0.131 C 
HETATM   21  C6  UNK   900     -46.949   1.274 -26.445  1.00  0.00     0.017 C 
HETATM   22  C7  UNK   900     -47.170   2.410 -27.216  1.00  0.00     0.003 C 
HETATM   23  C8  UNK   900     -46.298   2.597 -28.278  1.00  0.00     0.019 C 
ENDBRANCH   1  14
TORSDOF 3
ENDMDL
MODEL 5
REMARK VINA RESULT:      -5.8     43.184     44.842
REMARK  3 active torsions:
REMARK  status: ('A' for Active; 'I' for Inactive)
REMARK    1  A    between atoms: C9_10  and  N2_11 
REMARK       I    between atoms: N2_11  and  C10_12 
REMARK    2  A    between atoms: C10_12  and  C11_14 
REMARK    3  A    between atoms: C11_14  and  N3_15 
ROOT
HETATM    1  N2  UNK   900     -23.095 -16.996 -20.507  1.00  0.00    -0.210 NA
HETATM    2  C10 UNK   900     -23.573 -15.919 -21.324  1.00  0.00     0.279 C 
HETATM    3  O1  UNK   900     -22.731 -14.991 -21.520  1.00  0.00    -0.268 OA
ENDROOT
BRANCH   2   4
HETATM    4  C11 UNK   900     -24.318 -16.352 -22.548  1.00  0.00     0.197 C 
BRANCH   4   5
HETATM    5  N3  UNK   900     -25.735 -16.159 -22.259  1.00  0.00    -0.318 N 
HETATM    6  C12 UNK   900     -26.428 -15.014 -22.141  1.00  0.00     0.076 C 
HETATM    7  C13 UNK   900     -27.772 -15.327 -22.312  1.00  0.00     0.020 C 
HETATM    8  C14 UNK   900     -27.906 -16.694 -22.113  1.00  0.00     0.017 C 
HETATM    9  C15 UNK   900     -28.865 -17.499 -21.521  1.00  0.00     0.002 C 
HETATM   10  C19 UNK   900     -26.603 -17.168 -22.090  1.00  0.00     0.060 C 
HETATM   11  C16 UNK   900     -28.685 -18.869 -21.668  1.00  0.00     0.000 C 
HETATM   12  C17 UNK   900     -27.427 -19.417 -21.859  1.00  0.00     0.002 C 
HETATM   13  C18 UNK   900     -26.393 -18.540 -22.030  1.00  0.00     0.017 C 
ENDBRANCH   4   5
ENDBRANCH   2   4
BRANCH   1  14
HETATM   14  C9  UNK   900     -22.482 -16.634 -19.271  1.00  0.00     0.086 C 
HETATM   15  C4  UNK   900     -21.114 -16.861 -19.180  1.00  0.00     0.035 C 
HETATM   16  C3  UNK   900     -20.057 -16.743 -20.071  1.00  0.00     0.022 C 
HETATM   17  C5  UNK   900     -20.500 -17.175 -17.974  1.00  0.00     0.061 C 
HETATM   18  C2  UNK   900     -18.940 -17.265 -19.432  1.00  0.00     0.076 C 
HETATM   19  N1  UNK   900     -19.294 -17.745 -18.214  1.00  0.00    -0.324 N 
HETATM   20  C1  UNK   900     -18.646 -18.808 -17.487  1.00  0.00     0.131 C 
HETATM   21  C6  UNK   900     -21.280 -17.136 -16.833  1.00  0.00     0.017 C 
HETATM   22  C7  UNK   900     -22.520 -16.508 -16.864  1.00  0.00     0.003 C 
HETATM   23  C8  UNK   900     -23.169 -16.514 -18.090  1.00  0.00     0.019 C 
ENDBRANCH   1  14
TORSDOF 3
ENDMDL
MODEL 6
REMARK VINA RESULT:      -5.6     34.796     36.757
REMARK  3 active torsions:
REMARK  status: ('A' for Active; 'I' for Inactive)
REMARK    1  A    between atoms: C9_10  and  N2_11 
REMARK       I    between atoms: N2_11  and  C10_12 
REMARK    2  A    between atoms: C10_12  and  C11_14 
REMARK    3  A    between atoms: C11_14  and  N3_15 
ROOT
HETATM    1  N2  UNK   900      -5.436  -9.399 -18.570  1.00  0.00    -0.210 NA
HETATM    2  C10 UNK   900      -4.225 -10.001 -18.094  1.00  0.00     0.279 C 
HETATM    3  O1  UNK   900      -3.642 -10.750 -18.935  1.00  0.00    -0.268 OA
ENDROOT
BRANCH   2   4
HETATM    4  C11 UNK   900      -3.316  -9.068 -17.356  1.00  0.00     0.197 C 
BRANCH   4   5
HETATM    5  N3  UNK   900      -3.314  -9.508 -15.965  1.00  0.00    -0.318 N 
HETATM    6  C12 UNK   900      -2.986 -10.707 -15.456  1.00  0.00     0.076 C 
HETATM    7  C13 UNK   900      -2.707 -10.519 -14.107  1.00  0.00     0.020 C 
HETATM    8  C14 UNK   900      -3.269  -9.306 -13.734  1.00  0.00     0.017 C 
HETATM    9  C15 UNK   900      -3.912  -8.842 -12.598  1.00  0.00     0.002 C 
HETATM   10  C19 UNK   900      -3.630  -8.711 -14.934  1.00  0.00     0.060 C 
HETATM   11  C16 UNK   900      -4.196  -7.483 -12.572  1.00  0.00     0.000 C 
HETATM   12  C17 UNK   900      -4.370  -6.757 -13.740  1.00  0.00     0.002 C 
HETATM   13  C18 UNK   900      -4.115  -7.409 -14.913  1.00  0.00     0.017 C 
ENDBRANCH   4   5
ENDBRANCH   2   4
BRANCH   1  14
HETATM   14  C9  UNK   900      -6.386 -10.273 -19.176  1.00  0.00     0.086 C 
HETATM   15  C4  UNK   900      -6.962  -9.821 -20.357  1.00  0.00     0.035 C 
HETATM   16  C3  UNK   900      -6.489  -9.110 -21.450  1.00  0.00     0.022 C 
HETATM   17  C5  UNK   900      -8.259 -10.167 -20.720  1.00  0.00     0.061 C 
HETATM   18  C2  UNK   900      -7.590  -8.830 -22.248  1.00  0.00     0.076 C 
HETATM   19  N1  UNK   900      -8.715  -9.294 -21.652  1.00  0.00    -0.324 N 
HETATM   20  C1  UNK   900     -10.051  -8.774 -21.811  1.00  0.00     0.131 C 
HETATM   21  C6  UNK   900      -8.922 -11.080 -19.923  1.00  0.00     0.017 C 
HETATM   22  C7  UNK   900      -8.210 -11.839 -19.001  1.00  0.00     0.003 C 
HETATM   23  C8  UNK   900      -7.064 -11.249 -18.490  1.00  0.00     0.019 C 
ENDBRANCH   1  14
TORSDOF 3
ENDMDL
MODEL 7
REMARK VINA RESULT:      -5.5      2.396      3.041
REMARK  3 active torsions:
REMARK  status: ('A' for Active; 'I' for Inactive)
REMARK    1  A    between atoms: C9_10  and  N2_11 
REMARK       I    between atoms: N2_11  and  C10_12 
REMARK    2  A    between atoms: C10_12  and  C11_14 
REMARK    3  A    between atoms: C11_14  and  N3_15 
ROOT
HETATM    1  N2  UNK   900      -5.113  -5.405  20.398  1.00  0.00    -0.210 NA
HETATM    2  C10 UNK   900      -4.907  -3.995  20.554  1.00  0.00     0.279 C 
HETATM    3  O1  UNK   900      -5.449  -3.494  21.586  1.00  0.00    -0.268 OA
ENDROOT
BRANCH   2   4
HETATM    4  C11 UNK   900      -3.503  -3.541  20.306  1.00  0.00     0.197 C 
BRANCH   4   5
HETATM    5  N3  UNK   900      -3.589  -2.426  19.369  1.00  0.00    -0.318 N 
HETATM    6  C12 UNK   900      -3.646  -1.108  19.621  1.00  0.00     0.076 C 
HETATM    7  C13 UNK   900      -3.270  -0.449  18.456  1.00  0.00     0.020 C 
HETATM    8  C14 UNK   900      -3.398  -1.353  17.411  1.00  0.00     0.017 C 
HETATM    9  C15 UNK   900      -3.814  -1.261  16.093  1.00  0.00     0.002 C 
HETATM   10  C19 UNK   900      -3.594  -2.575  18.035  1.00  0.00     0.060 C 
HETATM   11  C16 UNK   900      -3.645  -2.402  15.320  1.00  0.00     0.000 C 
HETATM   12  C17 UNK   900      -3.620  -3.665  15.890  1.00  0.00     0.002 C 
HETATM   13  C18 UNK   900      -3.634  -3.725  17.255  1.00  0.00     0.017 C 
ENDBRANCH   4   5
ENDBRANCH   2   4
BRANCH   1  14
HETATM   14  C9  UNK   900      -6.457  -5.869  20.509  1.00  0.00     0.086 C 
HETATM   15  C4  UNK   900      -6.737  -6.665  21.614  1.00  0.00     0.035 C 
HETATM   16  C3  UNK   900      -6.327  -6.652  22.939  1.00  0.00     0.022 C 
HETATM   17  C5  UNK   900      -7.699  -7.667  21.572  1.00  0.00     0.061 C 
HETATM   18  C2  UNK   900      -6.837  -7.804  23.523  1.00  0.00     0.076 C 
HETATM   19  N1  UNK   900      -7.489  -8.539  22.589  1.00  0.00    -0.324 N 
HETATM   20  C1  UNK   900      -7.673  -9.969  22.592  1.00  0.00     0.131 C 
HETATM   21  C6  UNK   900      -8.463  -7.769  20.425  1.00  0.00     0.017 C 
HETATM   22  C7  UNK   900      -8.474  -6.726  19.505  1.00  0.00     0.003 C 
HETATM   23  C8  UNK   900      -7.318  -5.962  19.446  1.00  0.00     0.019 C 
ENDBRANCH   1  14
TORSDOF 3
ENDMDL
MODEL 8
REMARK VINA RESULT:      -5.5     48.804     50.624
REMARK  3 active torsions:
REMARK  status: ('A' for Active; 'I' for Inactive)
REMARK    1  A    between atoms: C9_10  and  N2_11 
REMARK       I    between atoms: N2_11  and  C10_12 
REMARK    2  A    between atoms: C10_12  and  C11_14 
REMARK    3  A    between atoms: C11_14  and  N3_15 
ROOT
HETATM    1  N2  UNK   900     -36.499  19.183 -13.643  1.00  0.00    -0.210 NA
HETATM    2  C10 UNK   900     -35.918  19.151 -14.953  1.00  0.00     0.279 C 
HETATM    3  O1  UNK   900     -36.758  19.108 -15.902  1.00  0.00    -0.268 OA
ENDROOT
BRANCH   2   4
HETATM    4  C11 UNK   900     -34.797  20.121 -15.158  1.00  0.00     0.197 C 
BRANCH   4   5
HETATM    5  N3  UNK   900     -33.804  19.828 -14.130  1.00  0.00    -0.318 N 
HETATM    6  C12 UNK   900     -33.148  18.681 -13.888  1.00  0.00     0.076 C 
HETATM    7  C13 UNK   900     -32.021  19.001 -13.139  1.00  0.00     0.020 C 
HETATM    8  C14 UNK   900     -32.234  20.259 -12.591  1.00  0.00     0.017 C 
HETATM    9  C15 UNK   900     -31.932  20.852 -11.376  1.00  0.00     0.002 C 
HETATM   10  C19 UNK   900     -33.359  20.734 -13.247  1.00  0.00     0.060 C 
HETATM   11  C16 UNK   900     -32.194  22.213 -11.281  1.00  0.00     0.000 C 
HETATM   12  C17 UNK   900     -33.170  22.818 -12.057  1.00  0.00     0.002 C 
HETATM   13  C18 UNK   900     -33.766  22.042 -13.011  1.00  0.00     0.017 C 
ENDBRANCH   4   5
ENDBRANCH   2   4
BRANCH   1  14
HETATM   14  C9  UNK   900     -37.492  18.198 -13.362  1.00  0.00     0.086 C 
HETATM   15  C4  UNK   900     -38.527  18.597 -12.526  1.00  0.00     0.035 C 
HETATM   16  C3  UNK   900     -39.242  19.776 -12.372  1.00  0.00     0.022 C 
HETATM   17  C5  UNK   900     -39.168  17.705 -11.674  1.00  0.00     0.061 C 
HETATM   18  C2  UNK   900     -40.053  19.606 -11.258  1.00  0.00     0.076 C 
HETATM   19  N1  UNK   900     -39.815  18.393 -10.701  1.00  0.00    -0.324 N 
HETATM   20  C1  UNK   900     -39.985  18.035  -9.315  1.00  0.00     0.131 C 
HETATM   21  C6  UNK   900     -38.824  16.370 -11.773  1.00  0.00     0.017 C 
HETATM   22  C7  UNK   900     -38.113  15.919 -12.879  1.00  0.00     0.003 C 
HETATM   23  C8  UNK   900     -37.275  16.848 -13.478  1.00  0.00     0.019 C 
ENDBRANCH   1  14
TORSDOF 3
ENDMDL
MODEL 9
REMARK VINA RESULT:      -5.4     26.147     28.065
REMARK  3 active torsions:
REMARK  status: ('A' for Active; 'I' for Inactive)
REMARK    1  A    between atoms: C9_10  and  N2_11 
REMARK       I    between atoms: N2_11  and  C10_12 
REMARK    2  A    between atoms: C10_12  and  C11_14 
REMARK    3  A    between atoms: C11_14  and  N3_15 
ROOT
HETATM    1  N2  UNK   900     -32.638  -3.565  12.515  1.00  0.00    -0.210 NA
HETATM    2  C10 UNK   900     -32.196  -4.796  13.104  1.00  0.00     0.279 C 
HETATM    3  O1  UNK   900     -31.784  -4.691  14.299  1.00  0.00    -0.268 OA
ENDROOT
BRANCH   2   4
HETATM    4  C11 UNK   900     -33.100  -5.962  12.857  1.00  0.00     0.197 C 
BRANCH   4   5
HETATM    5  N3  UNK   900     -32.468  -6.760  11.812  1.00  0.00    -0.318 N 
HETATM    6  C12 UNK   900     -32.344  -6.494  10.501  1.00  0.00     0.076 C 
HETATM    7  C13 UNK   900     -31.312  -7.291  10.015  1.00  0.00     0.020 C 
HETATM    8  C14 UNK   900     -31.115  -8.314  10.932  1.00  0.00     0.017 C 
HETATM    9  C15 UNK   900     -30.805  -9.660  10.832  1.00  0.00     0.002 C 
HETATM   10  C19 UNK   900     -31.857  -7.933  12.039  1.00  0.00     0.060 C 
HETATM   11  C16 UNK   900     -30.542 -10.315  12.028  1.00  0.00     0.000 C 
HETATM   12  C17 UNK   900     -31.080  -9.876  13.228  1.00  0.00     0.002 C 
HETATM   13  C18 UNK   900     -31.769  -8.696  13.197  1.00  0.00     0.017 C 
ENDBRANCH   4   5
ENDBRANCH   2   4
BRANCH   1  14
HETATM   14  C9  UNK   900     -31.752  -2.452  12.624  1.00  0.00     0.086 C 
HETATM   15  C4  UNK   900     -32.331  -1.249  13.007  1.00  0.00     0.035 C 
HETATM   16  C3  UNK   900     -33.335  -0.904  13.899  1.00  0.00     0.022 C 
HETATM   17  C5  UNK   900     -31.835  -0.025  12.574  1.00  0.00     0.061 C 
HETATM   18  C2  UNK   900     -33.569   0.454  13.728  1.00  0.00     0.076 C 
HETATM   19  N1  UNK   900     -32.786   0.929  12.728  1.00  0.00    -0.324 N 
HETATM   20  C1  UNK   900     -33.069   2.056  11.875  1.00  0.00     0.131 C 
HETATM   21  C6  UNK   900     -30.664  -0.036  11.840  1.00  0.00     0.017 C 
HETATM   22  C7  UNK   900     -29.872  -1.178  11.818  1.00  0.00     0.003 C 
HETATM   23  C8  UNK   900     -30.543  -2.381  11.981  1.00  0.00     0.019 C 
ENDBRANCH   1  14
TORSDOF 3
ENDMDL
