MODEL 1
REMARK VINA RESULT:      -8.4      0.000      0.000
REMARK  4 active torsions:
REMARK  status: ('A' for Active; 'I' for Inactive)
REMARK    1  A    between atoms: O1_2  and  C2_3 
REMARK    2  A    between atoms: C5_6  and  C6_7 
REMARK    3  A    between atoms: C14_19  and  C15_20 
REMARK    4  A    between atoms: C24_31  and  O8_32 
ROOT
HETATM    1  C6  UNK   900      -9.237   6.255   7.252  1.00  0.00     0.046 C 
HETATM    2  C7  UNK   900     -10.295   6.956   6.216  1.00  0.00     0.101 C 
HETATM    3  C8  UNK   900      -9.562   7.722   5.232  1.00  0.00     0.277 C 
HETATM    4  O2  UNK   900     -10.148   8.725   4.730  1.00  0.00    -0.264 OA
HETATM    5  O3  UNK   900      -8.270   7.478   4.788  1.00  0.00    -0.277 OA
HETATM    6  C9  UNK   900      -7.751   6.231   5.155  1.00  0.00     0.103 C 
HETATM    7  C10 UNK   900      -6.883   5.524   4.328  1.00  0.00     0.052 C 
HETATM    8  C11 UNK   900      -6.747   4.144   4.462  1.00  0.00     0.138 C 
HETATM    9  O4  UNK   900      -6.022   3.414   3.536  1.00  0.00    -0.190 OA
HETATM   10  C12 UNK   900      -7.745   3.460   5.148  1.00  0.00     0.087 C 
HETATM   11  C13 UNK   900      -8.225   2.232   4.702  1.00  0.00     0.201 C 
HETATM   12  O5  UNK   900      -7.567   1.579   3.848  1.00  0.00    -0.286 OA
HETATM   13  C14 UNK   900      -9.531   1.817   4.947  1.00  0.00     0.064 C 
HETATM   14  C21 UNK   900     -10.135   2.462   6.019  1.00  0.00     0.126 C 
HETATM   15  O7  UNK   900      -9.573   3.509   6.603  1.00  0.00    -0.305 OA
HETATM   16  C22 UNK   900      -8.539   4.137   6.068  1.00  0.00     0.103 C 
HETATM   17  C23 UNK   900      -8.428   5.524   6.074  1.00  0.00     0.025 C 
ENDROOT
BRANCH   1  18
HETATM   18  C5  UNK   900      -8.261   7.538   7.342  1.00  0.00     0.072 C 
HETATM   19  C4  UNK   900      -8.886   8.704   7.786  1.00  0.00    -0.018 C 
HETATM   20  C3  UNK   900      -8.027   9.782   7.968  1.00  0.00     0.020 C 
HETATM   21  C2  UNK   900      -6.835   9.534   8.627  1.00  0.00     0.096 C 
HETATM   22  C26 UNK   900      -6.438   8.228   8.785  1.00  0.00     0.044 C 
HETATM   23  C24 UNK   900      -7.130   7.233   8.101  1.00  0.00     0.078 C 
BRANCH  21  24
HETATM   24  O1  UNK   900      -6.157  10.497   9.362  1.00  0.00    -0.328 OA
HETATM   25  C1  UNK   900      -6.574  10.857  10.575  1.00  0.00     0.181 C 
ENDBRANCH  21  24
BRANCH  23  26
HETATM   26  O8  UNK   900      -6.860   5.935   8.550  1.00  0.00    -0.332 OA
HETATM   27  C25 UNK   900      -5.592   5.318   8.333  1.00  0.00     0.181 C 
ENDBRANCH  23  26
ENDBRANCH   1  18
BRANCH  13  28
HETATM   28  C15 UNK   900     -10.321   1.120   3.921  1.00  0.00     0.005 C 
HETATM   29  C16 UNK   900     -10.082  -0.216   3.622  1.00  0.00     0.002 C 
HETATM   30  C17 UNK   900     -11.113  -1.107   3.352  1.00  0.00     0.027 C 
HETATM   31  C18 UNK   900     -12.419  -0.670   3.389  1.00  0.00     0.131 C 
HETATM   32  O6  UNK   900     -13.507  -1.509   3.315  1.00  0.00    -0.190 OA
HETATM   33  C19 UNK   900     -12.610   0.704   3.302  1.00  0.00     0.027 C 
HETATM   34  C20 UNK   900     -11.573   1.590   3.545  1.00  0.00     0.002 C 
ENDBRANCH  13  28
TORSDOF 4
ENDMDL
MODEL 2
REMARK VINA RESULT:      -7.9     15.621     20.386
REMARK  4 active torsions:
REMARK  status: ('A' for Active; 'I' for Inactive)
REMARK    1  A    between atoms: O1_2  and  C2_3 
REMARK    2  A    between atoms: C5_6  and  C6_7 
REMARK    3  A    between atoms: C14_19  and  C15_20 
REMARK    4  A    between atoms: C24_31  and  O8_32 
ROOT
HETATM    1  C6  UNK   900     -12.979 -14.426   7.193  1.00  0.00     0.046 C 
HETATM    2  C7  UNK   900     -11.988 -15.355   6.278  1.00  0.00     0.101 C 
HETATM    3  C8  UNK   900     -12.785 -16.280   5.502  1.00  0.00     0.277 C 
HETATM    4  O2  UNK   900     -12.248 -17.382   5.190  1.00  0.00    -0.264 OA
HETATM    5  O3  UNK   900     -14.091 -16.089   5.071  1.00  0.00    -0.277 OA
HETATM    6  C9  UNK   900     -14.562 -14.777   5.199  1.00  0.00     0.103 C 
HETATM    7  C10 UNK   900     -15.451 -14.224   4.281  1.00  0.00     0.052 C 
HETATM    8  C11 UNK   900     -15.548 -12.841   4.138  1.00  0.00     0.138 C 
HETATM    9  O4  UNK   900     -16.298 -12.290   3.114  1.00  0.00    -0.190 OA
HETATM   10  C12 UNK   900     -14.503 -12.066   4.628  1.00  0.00     0.087 C 
HETATM   11  C13 UNK   900     -14.015 -10.970   3.923  1.00  0.00     0.201 C 
HETATM   12  O5  UNK   900     -14.697 -10.481   2.982  1.00  0.00    -0.286 OA
HETATM   13  C14 UNK   900     -12.690 -10.557   4.024  1.00  0.00     0.064 C 
HETATM   14  C21 UNK   900     -12.051 -10.992   5.179  1.00  0.00     0.126 C 
HETATM   15  O7  UNK   900     -12.610 -11.879   5.986  1.00  0.00    -0.305 OA
HETATM   16  C22 UNK   900     -13.682 -12.568   5.633  1.00  0.00     0.103 C 
HETATM   17  C23 UNK   900     -13.826 -13.922   5.925  1.00  0.00     0.025 C 
ENDROOT
BRANCH   1  18
HETATM   18  C5  UNK   900     -13.981 -15.631   7.583  1.00  0.00     0.072 C 
HETATM   19  C4  UNK   900     -13.384 -16.657   8.317  1.00  0.00    -0.018 C 
HETATM   20  C3  UNK   900     -14.266 -17.643   8.746  1.00  0.00     0.020 C 
HETATM   21  C2  UNK   900     -15.463 -17.221   9.298  1.00  0.00     0.096 C 
HETATM   22  C26 UNK   900     -15.839 -15.912   9.116  1.00  0.00     0.044 C 
HETATM   23  C24 UNK   900     -15.117 -15.130   8.218  1.00  0.00     0.078 C 
BRANCH  21  24
HETATM   24  O1  UNK   900     -16.170 -17.959  10.237  1.00  0.00    -0.328 OA
HETATM   25  C1  UNK   900     -17.498 -18.056  10.179  1.00  0.00     0.181 C 
ENDBRANCH  21  24
BRANCH  23  26
HETATM   26  O8  UNK   900     -15.371 -13.757   8.321  1.00  0.00    -0.332 OA
HETATM   27  C25 UNK   900     -16.567 -13.177   7.805  1.00  0.00     0.181 C 
ENDBRANCH  23  26
ENDBRANCH   1  18
BRANCH  13  28
HETATM   28  C15 UNK   900     -11.932 -10.108   2.846  1.00  0.00     0.005 C 
HETATM   29  C16 UNK   900     -10.831  -9.272   2.983  1.00  0.00     0.002 C 
HETATM   30  C17 UNK   900      -9.690  -9.422   2.206  1.00  0.00     0.027 C 
HETATM   31  C18 UNK   900      -9.628 -10.434   1.274  1.00  0.00     0.131 C 
HETATM   32  O6  UNK   900      -8.483 -10.772   0.589  1.00  0.00    -0.190 OA
HETATM   33  C19 UNK   900     -10.842 -10.990   0.889  1.00  0.00     0.027 C 
HETATM   34  C20 UNK   900     -11.985 -10.816   1.652  1.00  0.00     0.002 C 
ENDBRANCH  13  28
TORSDOF 4
ENDMDL
MODEL 3
REMARK VINA RESULT:      -7.8      3.308      5.739
REMARK  4 active torsions:
REMARK  status: ('A' for Active; 'I' for Inactive)
REMARK    1  A    between atoms: O1_2  and  C2_3 
REMARK    2  A    between atoms: C5_6  and  C6_7 
REMARK    3  A    between atoms: C14_19  and  C15_20 
REMARK    4  A    between atoms: C24_31  and  O8_32 
ROOT
HETATM    1  C6  UNK   900      -5.756   3.235   2.523  1.00  0.00     0.046 C 
HETATM    2  C7  UNK   900      -5.276   1.766   3.065  1.00  0.00     0.101 C 
HETATM    3  C8  UNK   900      -4.652   1.918   4.362  1.00  0.00     0.277 C 
HETATM    4  O2  UNK   900      -3.768   1.069   4.678  1.00  0.00    -0.264 OA
HETATM    5  O3  UNK   900      -4.914   2.910   5.296  1.00  0.00    -0.277 OA
HETATM    6  C9  UNK   900      -6.063   3.667   5.038  1.00  0.00     0.103 C 
HETATM    7  C10 UNK   900      -6.860   4.164   6.066  1.00  0.00     0.052 C 
HETATM    8  C11 UNK   900      -8.193   4.491   5.829  1.00  0.00     0.138 C 
HETATM    9  O4  UNK   900      -9.036   4.820   6.877  1.00  0.00    -0.190 OA
HETATM   10  C12 UNK   900      -8.796   3.965   4.691  1.00  0.00     0.087 C 
HETATM   11  C13 UNK   900     -10.098   3.474   4.716  1.00  0.00     0.201 C 
HETATM   12  O5  UNK   900     -10.855   3.766   5.680  1.00  0.00    -0.286 OA
HETATM   13  C14 UNK   900     -10.519   2.454   3.868  1.00  0.00     0.064 C 
HETATM   14  C21 UNK   900      -9.732   2.305   2.732  1.00  0.00     0.126 C 
HETATM   15  O7  UNK   900      -8.583   2.949   2.597  1.00  0.00    -0.305 OA
HETATM   16  C22 UNK   900      -8.010   3.577   3.610  1.00  0.00     0.103 C 
HETATM   17  C23 UNK   900      -6.637   3.531   3.833  1.00  0.00     0.025 C 
ENDROOT
BRANCH   1  18
HETATM   18  C5  UNK   900      -4.439   4.012   3.040  1.00  0.00     0.072 C 
HETATM   19  C4  UNK   900      -3.244   3.538   2.497  1.00  0.00    -0.018 C 
HETATM   20  C3  UNK   900      -2.119   4.272   2.855  1.00  0.00     0.020 C 
HETATM   21  C2  UNK   900      -2.221   5.651   2.793  1.00  0.00     0.096 C 
HETATM   22  C26 UNK   900      -3.472   6.208   2.685  1.00  0.00     0.044 C 
HETATM   23  C24 UNK   900      -4.584   5.387   2.856  1.00  0.00     0.078 C 
BRANCH  21  24
HETATM   24  O1  UNK   900      -1.134   6.485   2.568  1.00  0.00    -0.328 OA
HETATM   25  C1  UNK   900      -0.166   6.141   1.719  1.00  0.00     0.181 C 
ENDBRANCH  21  24
BRANCH  23  26
HETATM   26  O8  UNK   900      -5.790   5.961   2.434  1.00  0.00    -0.332 OA
HETATM   27  C25 UNK   900      -6.408   7.020   3.162  1.00  0.00     0.181 C 
ENDBRANCH  23  26
ENDBRANCH   1  18
BRANCH  13  28
HETATM   28  C15 UNK   900     -11.404   1.378   4.340  1.00  0.00     0.005 C 
HETATM   29  C16 UNK   900     -12.543   1.027   3.625  1.00  0.00     0.002 C 
HETATM   30  C17 UNK   900     -12.947  -0.294   3.483  1.00  0.00     0.027 C 
HETATM   31  C18 UNK   900     -12.200  -1.300   4.055  1.00  0.00     0.131 C 
HETATM   32  O6  UNK   900     -12.416  -2.639   3.820  1.00  0.00    -0.190 OA
HETATM   33  C19 UNK   900     -11.320  -0.917   5.060  1.00  0.00     0.027 C 
HETATM   34  C20 UNK   900     -10.940   0.406   5.216  1.00  0.00     0.002 C 
ENDBRANCH  13  28
TORSDOF 4
ENDMDL
MODEL 4
REMARK VINA RESULT:      -7.8      2.234      8.344
REMARK  4 active torsions:
REMARK  status: ('A' for Active; 'I' for Inactive)
REMARK    1  A    between atoms: O1_2  and  C2_3 
REMARK    2  A    between atoms: C5_6  and  C6_7 
REMARK    3  A    between atoms: C14_19  and  C15_20 
REMARK    4  A    between atoms: C24_31  and  O8_32 
ROOT
HETATM    1  C6  UNK   900      -6.814   3.624   6.215  1.00  0.00     0.046 C 
HETATM    2  C7  UNK   900      -5.347   4.244   6.600  1.00  0.00     0.101 C 
HETATM    3  C8  UNK   900      -4.612   4.518   5.385  1.00  0.00     0.277 C 
HETATM    4  O2  UNK   900      -3.349   4.462   5.451  1.00  0.00    -0.264 OA
HETATM    5  O3  UNK   900      -5.150   4.826   4.143  1.00  0.00    -0.277 OA
HETATM    6  C9  UNK   900      -6.514   5.136   4.158  1.00  0.00     0.103 C 
HETATM    7  C10 UNK   900      -7.062   6.077   3.290  1.00  0.00     0.052 C 
HETATM    8  C11 UNK   900      -8.263   6.710   3.603  1.00  0.00     0.138 C 
HETATM    9  O4  UNK   900      -8.725   7.765   2.836  1.00  0.00    -0.190 OA
HETATM   10  C12 UNK   900      -8.688   6.674   4.927  1.00  0.00     0.087 C 
HETATM   11  C13 UNK   900      -9.246   7.789   5.544  1.00  0.00     0.201 C 
HETATM   12  O5  UNK   900      -9.652   8.753   4.840  1.00  0.00    -0.286 OA
HETATM   13  C14 UNK   900      -9.129   8.011   6.913  1.00  0.00     0.064 C 
HETATM   14  C21 UNK   900      -8.852   6.865   7.648  1.00  0.00     0.126 C 
HETATM   15  O7  UNK   900      -8.533   5.724   7.057  1.00  0.00    -0.305 OA
HETATM   16  C22 UNK   900      -8.236   5.663   5.770  1.00  0.00     0.103 C 
HETATM   17  C23 UNK   900      -7.197   4.875   5.283  1.00  0.00     0.025 C 
ENDROOT
BRANCH   1  18
HETATM   18  C5  UNK   900      -6.262   2.696   5.014  1.00  0.00     0.072 C 
HETATM   19  C4  UNK   900      -5.277   1.786   5.399  1.00  0.00    -0.018 C 
HETATM   20  C3  UNK   900      -4.877   0.913   4.394  1.00  0.00     0.020 C 
HETATM   21  C2  UNK   900      -5.875   0.327   3.634  1.00  0.00     0.096 C 
HETATM   22  C26 UNK   900      -7.142   0.855   3.704  1.00  0.00     0.044 C 
HETATM   23  C24 UNK   900      -7.322   2.069   4.360  1.00  0.00     0.078 C 
BRANCH  21  24
HETATM   24  O1  UNK   900      -5.735  -0.909   3.018  1.00  0.00    -0.328 OA
HETATM   25  C1  UNK   900      -5.165  -1.933   3.651  1.00  0.00     0.181 C 
ENDBRANCH  21  24
BRANCH  23  26
HETATM   26  O8  UNK   900      -8.660   2.373   4.644  1.00  0.00    -0.332 OA
HETATM   27  C25 UNK   900      -9.611   2.598   3.606  1.00  0.00     0.181 C 
ENDBRANCH  23  26
ENDBRANCH   1  18
BRANCH  13  28
HETATM   28  C15 UNK   900      -8.877   9.355   7.455  1.00  0.00     0.005 C 
HETATM   29  C16 UNK   900      -9.894  10.080   8.065  1.00  0.00     0.002 C 
HETATM   30  C17 UNK   900      -9.670  10.857   9.194  1.00  0.00     0.027 C 
HETATM   31  C18 UNK   900      -8.409  10.912   9.745  1.00  0.00     0.131 C 
HETATM   32  O6  UNK   900      -8.131  11.503  10.956  1.00  0.00    -0.190 OA
HETATM   33  C19 UNK   900      -7.362  10.513   8.924  1.00  0.00     0.027 C 
HETATM   34  C20 UNK   900      -7.590   9.762   7.783  1.00  0.00     0.002 C 
ENDBRANCH  13  28
TORSDOF 4
ENDMDL
MODEL 5
REMARK VINA RESULT:      -7.7      3.124      7.667
REMARK  4 active torsions:
REMARK  status: ('A' for Active; 'I' for Inactive)
REMARK    1  A    between atoms: O1_2  and  C2_3 
REMARK    2  A    between atoms: C5_6  and  C6_7 
REMARK    3  A    between atoms: C14_19  and  C15_20 
REMARK    4  A    between atoms: C24_31  and  O8_32 
ROOT
HETATM    1  C6  UNK   900      -4.693   4.329   4.330  1.00  0.00     0.046 C 
HETATM    2  C7  UNK   900      -4.609   5.676   3.402  1.00  0.00     0.101 C 
HETATM    3  C8  UNK   900      -5.047   5.359   2.061  1.00  0.00     0.277 C 
HETATM    4  O2  UNK   900      -4.558   6.046   1.118  1.00  0.00    -0.264 OA
HETATM    5  O3  UNK   900      -5.944   4.364   1.696  1.00  0.00    -0.277 OA
HETATM    6  C9  UNK   900      -6.660   3.804   2.760  1.00  0.00     0.103 C 
HETATM    7  C10 UNK   900      -7.976   3.373   2.613  1.00  0.00     0.052 C 
HETATM    8  C11 UNK   900      -8.810   3.263   3.724  1.00  0.00     0.138 C 
HETATM    9  O4  UNK   900     -10.160   3.004   3.569  1.00  0.00    -0.190 OA
HETATM   10  C12 UNK   900      -8.437   3.937   4.882  1.00  0.00     0.087 C 
HETATM   11  C13 UNK   900      -9.368   4.615   5.663  1.00  0.00     0.201 C 
HETATM   12  O5  UNK   900     -10.598   4.384   5.507  1.00  0.00    -0.286 OA
HETATM   13  C14 UNK   900      -9.026   5.733   6.417  1.00  0.00     0.064 C 
HETATM   14  C21 UNK   900      -7.668   5.828   6.700  1.00  0.00     0.126 C 
HETATM   15  O7  UNK   900      -6.784   5.029   6.123  1.00  0.00    -0.305 OA
HETATM   16  C22 UNK   900      -7.101   4.265   5.091  1.00  0.00     0.103 C 
HETATM   17  C23 UNK   900      -6.248   4.093   4.004  1.00  0.00     0.025 C 
ENDROOT
BRANCH   1  18
HETATM   18  C5  UNK   900      -4.140   3.336   3.184  1.00  0.00     0.072 C 
HETATM   19  C4  UNK   900      -2.884   3.683   2.682  1.00  0.00    -0.018 C 
HETATM   20  C3  UNK   900      -2.357   2.771   1.774  1.00  0.00     0.020 C 
HETATM   21  C2  UNK   900      -2.446   1.430   2.104  1.00  0.00     0.096 C 
HETATM   22  C26 UNK   900      -3.293   1.064   3.122  1.00  0.00     0.044 C 
HETATM   23  C24 UNK   900      -4.174   2.014   3.630  1.00  0.00     0.078 C 
BRANCH  21  24
HETATM   24  O1  UNK   900      -1.545   0.475   1.654  1.00  0.00    -0.328 OA
HETATM   25  C1  UNK   900      -1.254  -0.599   2.388  1.00  0.00     0.181 C 
ENDBRANCH  21  24
BRANCH  23  26
HETATM   26  O8  UNK   900      -4.772   1.651   4.843  1.00  0.00    -0.332 OA
HETATM   27  C25 UNK   900      -4.019   1.056   5.898  1.00  0.00     0.181 C 
ENDBRANCH  23  26
ENDBRANCH   1  18
BRANCH  13  28
HETATM   28  C15 UNK   900      -9.916   6.900   6.510  1.00  0.00     0.005 C 
HETATM   29  C16 UNK   900     -10.359   7.363   7.743  1.00  0.00     0.002 C 
HETATM   30  C17 UNK   900     -10.477   8.718   8.023  1.00  0.00     0.027 C 
HETATM   31  C18 UNK   900     -10.137   9.645   7.062  1.00  0.00     0.131 C 
HETATM   32  O6  UNK   900     -10.049  10.997   7.303  1.00  0.00    -0.190 OA
HETATM   33  C19 UNK   900     -10.078   9.180   5.754  1.00  0.00     0.027 C 
HETATM   34  C20 UNK   900      -9.988   7.826   5.477  1.00  0.00     0.002 C 
ENDBRANCH  13  28
TORSDOF 4
ENDMDL
MODEL 6
REMARK VINA RESULT:      -7.6     33.425     36.101
REMARK  4 active torsions:
REMARK  status: ('A' for Active; 'I' for Inactive)
REMARK    1  A    between atoms: O1_2  and  C2_3 
REMARK    2  A    between atoms: C5_6  and  C6_7 
REMARK    3  A    between atoms: C14_19  and  C15_20 
REMARK    4  A    between atoms: C24_31  and  O8_32 
ROOT
HETATM    1  C6  UNK   900     -23.502 -19.184 -16.448  1.00  0.00     0.046 C 
HETATM    2  C7  UNK   900     -24.605 -18.298 -15.622  1.00  0.00     0.101 C 
HETATM    3  C8  UNK   900     -23.918 -17.307 -14.823  1.00  0.00     0.277 C 
HETATM    4  O2  UNK   900     -24.489 -16.931 -13.758  1.00  0.00    -0.264 OA
HETATM    5  O3  UNK   900     -22.685 -16.732 -15.096  1.00  0.00    -0.277 OA
HETATM    6  C9  UNK   900     -22.206 -16.964 -16.391  1.00  0.00     0.103 C 
HETATM    7  C10 UNK   900     -21.454 -16.014 -17.076  1.00  0.00     0.052 C 
HETATM    8  C11 UNK   900     -21.384 -16.040 -18.468  1.00  0.00     0.138 C 
HETATM    9  O4  UNK   900     -20.784 -15.004 -19.162  1.00  0.00    -0.190 OA
HETATM   10  C12 UNK   900     -22.355 -16.764 -19.151  1.00  0.00     0.087 C 
HETATM   11  C13 UNK   900     -22.940 -16.281 -20.317  1.00  0.00     0.201 C 
HETATM   12  O5  UNK   900     -22.395 -15.328 -20.938  1.00  0.00    -0.286 OA
HETATM   13  C14 UNK   900     -24.240 -16.613 -20.684  1.00  0.00     0.064 C 
HETATM   14  C21 UNK   900     -24.712 -17.778 -20.091  1.00  0.00     0.126 C 
HETATM   15  O7  UNK   900     -24.044 -18.380 -19.120  1.00  0.00    -0.305 OA
HETATM   16  C22 UNK   900     -23.028 -17.798 -18.506  1.00  0.00     0.103 C 
HETATM   17  C23 UNK   900     -22.840 -17.889 -17.129  1.00  0.00     0.025 C 
ENDROOT
BRANCH   1  18
HETATM   18  C5  UNK   900     -22.451 -19.273 -15.225  1.00  0.00     0.072 C 
HETATM   19  C4  UNK   900     -22.968 -19.857 -14.068  1.00  0.00    -0.018 C 
HETATM   20  C3  UNK   900     -22.037 -20.035 -13.050  1.00  0.00     0.020 C 
HETATM   21  C2  UNK   900     -20.806 -20.558 -13.406  1.00  0.00     0.096 C 
HETATM   22  C26 UNK   900     -20.469 -20.582 -14.738  1.00  0.00     0.044 C 
HETATM   23  C24 UNK   900     -21.275 -19.897 -15.642  1.00  0.00     0.078 C 
BRANCH  21  24
HETATM   24  O1  UNK   900     -20.012 -21.292 -12.536  1.00  0.00    -0.328 OA
HETATM   25  C1  UNK   900     -20.138 -21.167 -11.216  1.00  0.00     0.181 C 
ENDBRANCH  21  24
BRANCH  23  26
HETATM   26  O8  UNK   900     -21.037 -20.223 -16.983  1.00  0.00    -0.332 OA
HETATM   27  C25 UNK   900     -19.824 -19.857 -17.637  1.00  0.00     0.181 C 
ENDBRANCH  23  26
ENDBRANCH   1  18
BRANCH  13  28
HETATM   28  C15 UNK   900     -25.154 -15.618 -21.264  1.00  0.00     0.005 C 
HETATM   29  C16 UNK   900     -24.778 -14.862 -22.368  1.00  0.00     0.002 C 
HETATM   30  C17 UNK   900     -25.667 -14.553 -23.388  1.00  0.00     0.027 C 
HETATM   31  C18 UNK   900     -26.964 -15.013 -23.324  1.00  0.00     0.131 C 
HETATM   32  O6  UNK   900     -27.861 -14.914 -24.363  1.00  0.00    -0.190 OA
HETATM   33  C19 UNK   900     -27.412 -15.415 -22.072  1.00  0.00     0.027 C 
HETATM   34  C20 UNK   900     -26.524 -15.696 -21.048  1.00  0.00     0.002 C 
ENDBRANCH  13  28
TORSDOF 4
ENDMDL
MODEL 7
REMARK VINA RESULT:      -7.1      3.261      8.998
REMARK  4 active torsions:
REMARK  status: ('A' for Active; 'I' for Inactive)
REMARK    1  A    between atoms: O1_2  and  C2_3 
REMARK    2  A    between atoms: C5_6  and  C6_7 
REMARK    3  A    between atoms: C14_19  and  C15_20 
REMARK    4  A    between atoms: C24_31  and  O8_32 
ROOT
HETATM    1  C6  UNK   900      -8.244   7.933   5.387  1.00  0.00     0.046 C 
HETATM    2  C7  UNK   900      -9.745   7.471   5.854  1.00  0.00     0.101 C 
HETATM    3  C8  UNK   900      -9.666   6.176   6.496  1.00  0.00     0.277 C 
HETATM    4  O2  UNK   900     -10.688   5.434   6.422  1.00  0.00    -0.264 OA
HETATM    5  O3  UNK   900      -8.575   5.654   7.177  1.00  0.00    -0.277 OA
HETATM    6  C9  UNK   900      -7.569   6.583   7.468  1.00  0.00     0.103 C 
HETATM    7  C10 UNK   900      -6.811   6.504   8.633  1.00  0.00     0.052 C 
HETATM    8  C11 UNK   900      -6.170   7.634   9.136  1.00  0.00     0.138 C 
HETATM    9  O4  UNK   900      -5.562   7.605  10.379  1.00  0.00    -0.190 OA
HETATM   10  C12 UNK   900      -6.604   8.877   8.687  1.00  0.00     0.087 C 
HETATM   11  C13 UNK   900      -6.741   9.958   9.553  1.00  0.00     0.201 C 
HETATM   12  O5  UNK   900      -6.195   9.919  10.689  1.00  0.00    -0.286 OA
HETATM   13  C14 UNK   900      -7.677  10.964   9.335  1.00  0.00     0.064 C 
HETATM   14  C21 UNK   900      -8.104  11.061   8.016  1.00  0.00     0.126 C 
HETATM   15  O7  UNK   900      -7.788  10.141   7.118  1.00  0.00    -0.305 OA
HETATM   16  C22 UNK   900      -7.257   8.980   7.463  1.00  0.00     0.103 C 
HETATM   17  C23 UNK   900      -7.639   7.781   6.867  1.00  0.00     0.025 C 
ENDROOT
BRANCH   1  18
HETATM   18  C5  UNK   900      -7.797   6.466   4.882  1.00  0.00     0.072 C 
HETATM   19  C4  UNK   900      -8.622   5.923   3.896  1.00  0.00    -0.018 C 
HETATM   20  C3  UNK   900      -8.180   4.710   3.381  1.00  0.00     0.020 C 
HETATM   21  C2  UNK   900      -6.836   4.612   3.065  1.00  0.00     0.096 C 
HETATM   22  C26 UNK   900      -5.981   5.574   3.545  1.00  0.00     0.044 C 
HETATM   23  C24 UNK   900      -6.458   6.476   4.492  1.00  0.00     0.078 C 
BRANCH  21  24
HETATM   24  O1  UNK   900      -6.346   3.760   2.084  1.00  0.00    -0.328 OA
HETATM   25  C1  UNK   900      -6.000   2.506   2.371  1.00  0.00     0.181 C 
ENDBRANCH  21  24
BRANCH  23  26
HETATM   26  O8  UNK   900      -5.629   7.587   4.694  1.00  0.00    -0.332 OA
HETATM   27  C25 UNK   900      -4.351   7.463   5.314  1.00  0.00     0.181 C 
ENDBRANCH  23  26
ENDBRANCH   1  18
BRANCH  13  28
HETATM   28  C15 UNK   900      -8.452  11.546  10.441  1.00  0.00     0.005 C 
HETATM   29  C16 UNK   900      -7.964  12.629  11.163  1.00  0.00     0.002 C 
HETATM   30  C17 UNK   900      -8.787  13.662  11.591  1.00  0.00     0.027 C 
HETATM   31  C18 UNK   900     -10.130  13.633  11.288  1.00  0.00     0.131 C 
HETATM   32  O6  UNK   900     -10.985  14.688  11.509  1.00  0.00    -0.190 OA
HETATM   33  C19 UNK   900     -10.651  12.397  10.925  1.00  0.00     0.027 C 
HETATM   34  C20 UNK   900      -9.826  11.359  10.525  1.00  0.00     0.002 C 
ENDBRANCH  13  28
TORSDOF 4
ENDMDL
MODEL 8
REMARK VINA RESULT:      -7.0     25.233     28.507
REMARK  4 active torsions:
REMARK  status: ('A' for Active; 'I' for Inactive)
REMARK    1  A    between atoms: O1_2  and  C2_3 
REMARK    2  A    between atoms: C5_6  and  C6_7 
REMARK    3  A    between atoms: C14_19  and  C15_20 
REMARK    4  A    between atoms: C24_31  and  O8_32 
ROOT
HETATM    1  C6  UNK   900     -37.664   3.437   4.991  1.00  0.00     0.046 C 
HETATM    2  C7  UNK   900     -38.449   3.344   3.556  1.00  0.00     0.101 C 
HETATM    3  C8  UNK   900     -37.478   3.250   2.488  1.00  0.00     0.277 C 
HETATM    4  O2  UNK   900     -37.817   3.711   1.360  1.00  0.00    -0.264 OA
HETATM    5  O3  UNK   900     -36.199   2.716   2.575  1.00  0.00    -0.277 OA
HETATM    6  C9  UNK   900     -35.949   1.986   3.742  1.00  0.00     0.103 C 
HETATM    7  C10 UNK   900     -35.115   0.871   3.746  1.00  0.00     0.052 C 
HETATM    8  C11 UNK   900     -35.233  -0.094   4.744  1.00  0.00     0.138 C 
HETATM    9  O4  UNK   900     -34.531  -1.284   4.660  1.00  0.00    -0.190 OA
HETATM   10  C12 UNK   900     -36.411  -0.120   5.483  1.00  0.00     0.087 C 
HETATM   11  C13 UNK   900     -37.031  -1.318   5.824  1.00  0.00     0.201 C 
HETATM   12  O5  UNK   900     -36.390  -2.400   5.732  1.00  0.00    -0.286 OA
HETATM   13  C14 UNK   900     -38.408  -1.413   6.000  1.00  0.00     0.064 C 
HETATM   14  C21 UNK   900     -39.026  -0.198   6.272  1.00  0.00     0.126 C 
HETATM   15  O7  UNK   900     -38.374   0.949   6.166  1.00  0.00    -0.305 OA
HETATM   16  C22 UNK   900     -37.190   1.028   5.583  1.00  0.00     0.103 C 
HETATM   17  C23 UNK   900     -36.848   2.079   4.736  1.00  0.00     0.025 C 
ENDROOT
BRANCH   1  18
HETATM   18  C5  UNK   900     -36.505   4.423   4.452  1.00  0.00     0.072 C 
HETATM   19  C4  UNK   900     -36.970   5.651   3.979  1.00  0.00    -0.018 C 
HETATM   20  C3  UNK   900     -35.967   6.543   3.616  1.00  0.00     0.020 C 
HETATM   21  C2  UNK   900     -34.898   6.677   4.484  1.00  0.00     0.096 C 
HETATM   22  C26 UNK   900     -34.734   5.733   5.468  1.00  0.00     0.044 C 
HETATM   23  C24 UNK   900     -35.513   4.580   5.421  1.00  0.00     0.078 C 
BRANCH  21  24
HETATM   24  O1  UNK   900     -34.143   7.838   4.587  1.00  0.00    -0.328 OA
HETATM   25  C1  UNK   900     -33.191   7.961   5.511  1.00  0.00     0.181 C 
ENDBRANCH  21  24
BRANCH  23  26
HETATM   26  O8  UNK   900     -35.501   3.831   6.605  1.00  0.00    -0.332 OA
HETATM   27  C25 UNK   900     -34.309   3.210   7.083  1.00  0.00     0.181 C 
ENDBRANCH  23  26
ENDBRANCH   1  18
BRANCH  13  28
HETATM   28  C15 UNK   900     -39.169  -2.572   5.508  1.00  0.00     0.005 C 
HETATM   29  C16 UNK   900     -39.214  -2.872   4.151  1.00  0.00     0.002 C 
HETATM   30  C17 UNK   900     -39.172  -4.178   3.683  1.00  0.00     0.027 C 
HETATM   31  C18 UNK   900     -39.070  -5.220   4.578  1.00  0.00     0.131 C 
HETATM   32  O6  UNK   900     -38.842  -6.525   4.207  1.00  0.00    -0.190 OA
HETATM   33  C19 UNK   900     -39.414  -4.935   5.894  1.00  0.00     0.027 C 
HETATM   34  C20 UNK   900     -39.482  -3.630   6.352  1.00  0.00     0.002 C 
ENDBRANCH  13  28
TORSDOF 4
ENDMDL
MODEL 9
REMARK VINA RESULT:      -6.9     17.513     22.951
REMARK  4 active torsions:
REMARK  status: ('A' for Active; 'I' for Inactive)
REMARK    1  A    between atoms: O1_2  and  C2_3 
REMARK    2  A    between atoms: C5_6  and  C6_7 
REMARK    3  A    between atoms: C14_19  and  C15_20 
REMARK    4  A    between atoms: C24_31  and  O8_32 
ROOT
HETATM    1  C6  UNK   900     -13.376 -15.185   7.771  1.00  0.00     0.046 C 
HETATM    2  C7  UNK   900     -14.471 -14.185   8.468  1.00  0.00     0.101 C 
HETATM    3  C8  UNK   900     -15.510 -13.875   7.510  1.00  0.00     0.277 C 
HETATM    4  O2  UNK   900     -16.094 -12.760   7.635  1.00  0.00    -0.264 OA
HETATM    5  O3  UNK   900     -15.927 -14.673   6.453  1.00  0.00    -0.277 OA
HETATM    6  C9  UNK   900     -15.457 -15.990   6.495  1.00  0.00     0.103 C 
HETATM    7  C10 UNK   900     -16.221 -17.057   6.030  1.00  0.00     0.052 C 
HETATM    8  C11 UNK   900     -15.975 -18.352   6.483  1.00  0.00     0.138 C 
HETATM    9  O4  UNK   900     -16.835 -19.387   6.160  1.00  0.00    -0.190 OA
HETATM   10  C12 UNK   900     -15.241 -18.498   7.655  1.00  0.00     0.087 C 
HETATM   11  C13 UNK   900     -15.588 -19.439   8.619  1.00  0.00     0.201 C 
HETATM   12  O5  UNK   900     -16.383 -20.372   8.322  1.00  0.00    -0.286 OA
HETATM   13  C14 UNK   900     -15.317 -19.246   9.970  1.00  0.00     0.064 C 
HETATM   14  C21 UNK   900     -14.303 -18.328  10.216  1.00  0.00     0.126 C 
HETATM   15  O7  UNK   900     -13.803 -17.575   9.249  1.00  0.00    -0.305 OA
HETATM   16  C22 UNK   900     -14.382 -17.483   8.064  1.00  0.00     0.103 C 
HETATM   17  C23 UNK   900     -14.488 -16.275   7.380  1.00  0.00     0.025 C 
ENDROOT
BRANCH   1  18
HETATM   18  C5  UNK   900     -13.385 -14.430   6.344  1.00  0.00     0.072 C 
HETATM   19  C4  UNK   900     -13.029 -13.082   6.406  1.00  0.00    -0.018 C 
HETATM   20  C3  UNK   900     -12.930 -12.457   5.168  1.00  0.00     0.020 C 
HETATM   21  C2  UNK   900     -12.258 -13.140   4.169  1.00  0.00     0.096 C 
HETATM   22  C26 UNK   900     -12.004 -14.478   4.351  1.00  0.00     0.044 C 
HETATM   23  C24 UNK   900     -12.610 -15.131   5.420  1.00  0.00     0.078 C 
BRANCH  21  24
HETATM   24  O1  UNK   900     -11.600 -12.505   3.125  1.00  0.00    -0.328 OA
HETATM   25  C1  UNK   900     -11.852 -11.232   2.824  1.00  0.00     0.181 C 
ENDBRANCH  21  24
BRANCH  23  26
HETATM   26  O8  UNK   900     -12.066 -16.390   5.705  1.00  0.00    -0.332 OA
HETATM   27  C25 UNK   900     -10.661 -16.627   5.650  1.00  0.00     0.181 C 
ENDBRANCH  23  26
ENDBRANCH   1  18
BRANCH  13  28
HETATM   28  C15 UNK   900     -16.287 -19.621  11.011  1.00  0.00     0.005 C 
HETATM   29  C16 UNK   900     -15.966 -20.565  11.978  1.00  0.00     0.002 C 
HETATM   30  C17 UNK   900     -16.364 -20.430  13.302  1.00  0.00     0.027 C 
HETATM   31  C18 UNK   900     -17.091 -19.324  13.685  1.00  0.00     0.131 C 
HETATM   32  O6  UNK   900     -17.373 -19.014  14.996  1.00  0.00    -0.190 OA
HETATM   33  C19 UNK   900     -17.717 -18.617  12.667  1.00  0.00     0.027 C 
HETATM   34  C20 UNK   900     -17.337 -18.774  11.344  1.00  0.00     0.002 C 
ENDBRANCH  13  28
TORSDOF 4
ENDMDL
