MODEL 1
REMARK VINA RESULT:      -6.1      0.000      0.000
REMARK  5 active torsions:
REMARK  status: ('A' for Active; 'I' for Inactive)
REMARK       I    between atoms: C2_2  and  N1_4 
REMARK    1  A    between atoms: C13_16  and  O3_17 
REMARK    2  A    between atoms: O3_17  and  C14_18 
REMARK    3  A    between atoms: C14_18  and  C15_19 
REMARK       I    between atoms: C15_19  and  N2_21 
REMARK    4  A    between atoms: N2_21  and  C16_22 
REMARK    5  A    between atoms: C16_22  and  C17_23 
ROOT
HETATM    1  C1  UNK   900     -23.256 -15.093 -22.214  1.00  0.00     0.098 C 
HETATM    2  C2  UNK   900     -23.677 -16.472 -21.815  1.00  0.00     0.234 C 
HETATM    3  O1  UNK   900     -24.900 -16.743 -22.013  1.00  0.00    -0.272 OA
HETATM    4  N1  UNK   900     -23.100 -17.096 -20.659  1.00  0.00    -0.320 N 
HETATM    5  C3  UNK   900     -23.215 -18.533 -20.611  1.00  0.00     0.106 C 
HETATM    6  C4  UNK   900     -22.917 -19.135 -19.280  1.00  0.00     0.052 C 
HETATM    7  C5  UNK   900     -23.253 -18.270 -18.105  1.00  0.00     0.109 C 
HETATM    8  C6  UNK   900     -24.002 -17.013 -18.472  1.00  0.00     0.052 C 
HETATM    9  C7  UNK   900     -23.102 -16.270 -19.453  1.00  0.00     0.106 C 
HETATM   10  C8  UNK   900     -21.931 -17.818 -17.495  1.00  0.00     0.097 C 
HETATM   11  C9  UNK   900     -22.097 -17.371 -16.099  1.00  0.00     0.177 C 
HETATM   12  O2  UNK   900     -21.327 -16.475 -15.651  1.00  0.00    -0.291 OA
HETATM   13  C10 UNK   900     -22.873 -18.250 -15.215  1.00  0.00     0.057 C 
HETATM   14  C11 UNK   900     -23.073 -17.773 -13.926  1.00  0.00     0.007 C 
HETATM   15  C12 UNK   900     -24.166 -18.185 -13.182  1.00  0.00     0.024 C 
HETATM   16  C13 UNK   900     -24.818 -19.324 -13.625  1.00  0.00     0.097 C 
HETATM   17  C22 UNK   900     -24.764 -19.630 -14.970  1.00  0.00     0.049 C 
HETATM   18  C23 UNK   900     -23.893 -18.966 -15.823  1.00  0.00     0.099 C 
HETATM   19  O5  UNK   900     -24.021 -19.030 -17.206  1.00  0.00    -0.335 OA
ENDROOT
BRANCH  16  20
HETATM   20  O3  UNK   900     -25.511 -20.115 -12.711  1.00  0.00    -0.321 OA
BRANCH  20  21
HETATM   21  C14 UNK   900     -25.753 -19.694 -11.380  1.00  0.00     0.238 C 
BRANCH  21  22
HETATM   22  C15 UNK   900     -27.147 -19.999 -10.942  1.00  0.00     0.282 C 
HETATM   23  O4  UNK   900     -27.706 -20.971 -11.534  1.00  0.00    -0.268 OA
HETATM   24  N2  UNK   900     -27.666 -19.634  -9.681  1.00  0.00    -0.231 NA
BRANCH  24  25
HETATM   25  C16 UNK   900     -28.435 -20.507  -8.826  1.00  0.00     0.157 C 
BRANCH  25  26
HETATM   26  C17 UNK   900     -28.357 -20.090  -7.391  1.00  0.00     0.021 C 
HETATM   27  C18 UNK   900     -29.538 -19.942  -6.675  1.00  0.00     0.001 C 
HETATM   28  C19 UNK   900     -29.621 -20.303  -5.336  1.00  0.00     0.020 C 
HETATM   29  C20 UNK   900     -28.536 -20.939  -4.744  1.00  0.00     0.099 C 
HETATM   30  N3  UNK   900     -27.330 -20.681  -5.302  1.00  0.00    -0.243 NA
HETATM   31  C21 UNK   900     -27.255 -20.482  -6.641  1.00  0.00     0.097 C 
ENDBRANCH  25  26
ENDBRANCH  24  25
ENDBRANCH  21  22
ENDBRANCH  20  21
ENDBRANCH  16  20
TORSDOF 5
ENDMDL
MODEL 2
REMARK VINA RESULT:      -6.0     20.603     24.185
REMARK  5 active torsions:
REMARK  status: ('A' for Active; 'I' for Inactive)
REMARK       I    between atoms: C2_2  and  N1_4 
REMARK    1  A    between atoms: C13_16  and  O3_17 
REMARK    2  A    between atoms: O3_17  and  C14_18 
REMARK    3  A    between atoms: C14_18  and  C15_19 
REMARK       I    between atoms: C15_19  and  N2_21 
REMARK    4  A    between atoms: N2_21  and  C16_22 
REMARK    5  A    between atoms: C16_22  and  C17_23 
ROOT
HETATM    1  C1  UNK   900      -1.014  -9.365 -21.542  1.00  0.00     0.098 C 
HETATM    2  C2  UNK   900      -2.207  -9.116 -20.676  1.00  0.00     0.234 C 
HETATM    3  O1  UNK   900      -3.004 -10.095 -20.558  1.00  0.00    -0.272 OA
HETATM    4  N1  UNK   900      -2.833  -7.825 -20.664  1.00  0.00    -0.320 N 
HETATM    5  C3  UNK   900      -3.655  -7.548 -19.512  1.00  0.00     0.106 C 
HETATM    6  C4  UNK   900      -4.550  -6.365 -19.659  1.00  0.00     0.052 C 
HETATM    7  C5  UNK   900      -5.019  -6.094 -21.054  1.00  0.00     0.109 C 
HETATM    8  C6  UNK   900      -4.648  -7.177 -22.038  1.00  0.00     0.052 C 
HETATM    9  C7  UNK   900      -3.127  -7.275 -21.986  1.00  0.00     0.106 C 
HETATM   10  C8  UNK   900      -4.310  -4.828 -21.524  1.00  0.00     0.097 C 
HETATM   11  C9  UNK   900      -5.010  -4.197 -22.658  1.00  0.00     0.177 C 
HETATM   12  O2  UNK   900      -4.334  -3.550 -23.507  1.00  0.00    -0.291 OA
HETATM   13  C10 UNK   900      -6.464  -4.033 -22.525  1.00  0.00     0.057 C 
HETATM   14  C11 UNK   900      -7.107  -3.501 -23.634  1.00  0.00     0.007 C 
HETATM   15  C12 UNK   900      -8.446  -3.770 -23.871  1.00  0.00     0.024 C 
HETATM   16  C13 UNK   900      -9.171  -4.269 -22.802  1.00  0.00     0.097 C 
HETATM   17  C22 UNK   900      -8.501  -4.985 -21.831  1.00  0.00     0.049 C 
HETATM   18  C23 UNK   900      -7.114  -5.009 -21.785  1.00  0.00     0.099 C 
HETATM   19  O5  UNK   900      -6.415  -5.943 -21.027  1.00  0.00    -0.335 OA
ENDROOT
BRANCH  16  20
HETATM   20  O3  UNK   900     -10.546  -4.044 -22.743  1.00  0.00    -0.321 OA
BRANCH  20  21
HETATM   21  C14 UNK   900     -11.325  -3.829 -23.906  1.00  0.00     0.238 C 
BRANCH  21  22
HETATM   22  C15 UNK   900     -11.893  -5.101 -24.441  1.00  0.00     0.282 C 
HETATM   23  O4  UNK   900     -12.003  -5.163 -25.702  1.00  0.00    -0.268 OA
HETATM   24  N2  UNK   900     -11.857  -6.327 -23.741  1.00  0.00    -0.231 NA
BRANCH  24  25
HETATM   25  C16 UNK   900     -11.484  -7.595 -24.323  1.00  0.00     0.157 C 
BRANCH  25  26
HETATM   26  C17 UNK   900     -10.389  -8.261 -23.551  1.00  0.00     0.021 C 
HETATM   27  C18 UNK   900     -10.461  -8.268 -22.164  1.00  0.00     0.001 C 
HETATM   28  C19 UNK   900     -10.039  -9.366 -21.424  1.00  0.00     0.020 C 
HETATM   29  C20 UNK   900      -9.656 -10.520 -22.096  1.00  0.00     0.099 C 
HETATM   30  N3  UNK   900      -9.202 -10.339 -23.359  1.00  0.00    -0.243 NA
HETATM   31  C21 UNK   900      -9.742  -9.352 -24.115  1.00  0.00     0.097 C 
ENDBRANCH  25  26
ENDBRANCH  24  25
ENDBRANCH  21  22
ENDBRANCH  20  21
ENDBRANCH  16  20
TORSDOF 5
ENDMDL
MODEL 3
REMARK VINA RESULT:      -5.8     36.641     38.400
REMARK  5 active torsions:
REMARK  status: ('A' for Active; 'I' for Inactive)
REMARK       I    between atoms: C2_2  and  N1_4 
REMARK    1  A    between atoms: C13_16  and  O3_17 
REMARK    2  A    between atoms: O3_17  and  C14_18 
REMARK    3  A    between atoms: C14_18  and  C15_19 
REMARK       I    between atoms: C15_19  and  N2_21 
REMARK    4  A    between atoms: N2_21  and  C16_22 
REMARK    5  A    between atoms: C16_22  and  C17_23 
ROOT
HETATM    1  C1  UNK   900      -5.082  14.378 -22.744  1.00  0.00     0.098 C 
HETATM    2  C2  UNK   900      -6.219  14.502 -21.780  1.00  0.00     0.234 C 
HETATM    3  O1  UNK   900      -6.543  15.690 -21.475  1.00  0.00    -0.272 OA
HETATM    4  N1  UNK   900      -6.377  13.545 -20.723  1.00  0.00    -0.320 N 
HETATM    5  C3  UNK   900      -7.696  13.474 -20.145  1.00  0.00     0.106 C 
HETATM    6  C4  UNK   900      -7.769  12.733 -18.854  1.00  0.00     0.052 C 
HETATM    7  C5  UNK   900      -6.534  12.806 -18.011  1.00  0.00     0.109 C 
HETATM    8  C6  UNK   900      -5.498  13.770 -18.537  1.00  0.00     0.052 C 
HETATM    9  C7  UNK   900      -5.167  13.288 -19.945  1.00  0.00     0.106 C 
HETATM   10  C8  UNK   900      -5.889  11.425 -18.045  1.00  0.00     0.097 C 
HETATM   11  C9  UNK   900      -4.963  11.225 -16.916  1.00  0.00     0.177 C 
HETATM   12  O2  UNK   900      -3.965  10.465 -17.074  1.00  0.00    -0.291 OA
HETATM   13  C10 UNK   900      -5.456  11.602 -15.585  1.00  0.00     0.057 C 
HETATM   14  C11 UNK   900      -4.540  11.469 -14.550  1.00  0.00     0.007 C 
HETATM   15  C12 UNK   900      -4.651  12.241 -13.405  1.00  0.00     0.024 C 
HETATM   16  C13 UNK   900      -5.872  12.859 -13.195  1.00  0.00     0.097 C 
HETATM   17  C22 UNK   900      -6.649  13.167 -14.293  1.00  0.00     0.049 C 
HETATM   18  C23 UNK   900      -6.345  12.666 -15.552  1.00  0.00     0.099 C 
HETATM   19  O5  UNK   900      -6.911  13.185 -16.711  1.00  0.00    -0.335 OA
ENDROOT
BRANCH  16  20
HETATM   20  O3  UNK   900      -6.273  13.158 -11.894  1.00  0.00    -0.321 OA
BRANCH  20  21
HETATM   21  C14 UNK   900      -5.475  13.935 -11.019  1.00  0.00     0.238 C 
BRANCH  21  22
HETATM   22  C15 UNK   900      -5.406  15.363 -11.446  1.00  0.00     0.282 C 
HETATM   23  O4  UNK   900      -4.247  15.795 -11.723  1.00  0.00    -0.268 OA
HETATM   24  N2  UNK   900      -6.500  16.068 -11.995  1.00  0.00    -0.231 NA
BRANCH  24  25
HETATM   25  C16 UNK   900      -6.429  16.914 -13.163  1.00  0.00     0.157 C 
BRANCH  25  26
HETATM   26  C17 UNK   900      -7.789  17.282 -13.666  1.00  0.00     0.021 C 
HETATM   27  C18 UNK   900      -8.512  18.251 -12.982  1.00  0.00     0.001 C 
HETATM   28  C19 UNK   900      -9.313  19.165 -13.656  1.00  0.00     0.020 C 
HETATM   29  C20 UNK   900      -9.286  19.184 -15.045  1.00  0.00     0.099 C 
HETATM   30  N3  UNK   900      -8.940  18.018 -15.640  1.00  0.00    -0.243 NA
HETATM   31  C21 UNK   900      -8.038  17.211 -15.031  1.00  0.00     0.097 C 
ENDBRANCH  25  26
ENDBRANCH  24  25
ENDBRANCH  21  22
ENDBRANCH  20  21
ENDBRANCH  16  20
TORSDOF 5
ENDMDL
MODEL 4
REMARK VINA RESULT:      -5.7     19.819     24.318
REMARK  5 active torsions:
REMARK  status: ('A' for Active; 'I' for Inactive)
REMARK       I    between atoms: C2_2  and  N1_4 
REMARK    1  A    between atoms: C13_16  and  O3_17 
REMARK    2  A    between atoms: O3_17  and  C14_18 
REMARK    3  A    between atoms: C14_18  and  C15_19 
REMARK       I    between atoms: C15_19  and  N2_21 
REMARK    4  A    between atoms: N2_21  and  C16_22 
REMARK    5  A    between atoms: C16_22  and  C17_23 
ROOT
HETATM    1  C1  UNK   900      -0.680  -9.081 -18.223  1.00  0.00     0.098 C 
HETATM    2  C2  UNK   900      -1.895  -8.377 -17.708  1.00  0.00     0.234 C 
HETATM    3  O1  UNK   900      -2.805  -9.132 -17.252  1.00  0.00    -0.272 OA
HETATM    4  N1  UNK   900      -2.367  -7.187 -18.355  1.00  0.00    -0.320 N 
HETATM    5  C3  UNK   900      -3.231  -6.351 -17.557  1.00  0.00     0.106 C 
HETATM    6  C4  UNK   900      -3.971  -5.311 -18.326  1.00  0.00     0.052 C 
HETATM    7  C5  UNK   900      -4.306  -5.684 -19.736  1.00  0.00     0.109 C 
HETATM    8  C6  UNK   900      -3.994  -7.122 -20.073  1.00  0.00     0.052 C 
HETATM    9  C7  UNK   900      -2.502  -7.291 -19.806  1.00  0.00     0.106 C 
HETATM   10  C8  UNK   900      -3.425  -4.831 -20.643  1.00  0.00     0.097 C 
HETATM   11  C9  UNK   900      -3.967  -4.749 -22.012  1.00  0.00     0.177 C 
HETATM   12  O2  UNK   900      -3.163  -4.616 -22.979  1.00  0.00    -0.291 OA
HETATM   13  C10 UNK   900      -5.397  -4.441 -22.136  1.00  0.00     0.057 C 
HETATM   14  C11 UNK   900      -5.896  -4.438 -23.433  1.00  0.00     0.007 C 
HETATM   15  C12 UNK   900      -7.236  -4.691 -23.674  1.00  0.00     0.024 C 
HETATM   16  C13 UNK   900      -8.088  -4.588 -22.587  1.00  0.00     0.097 C 
HETATM   17  C22 UNK   900      -7.575  -4.819 -21.327  1.00  0.00     0.049 C 
HETATM   18  C23 UNK   900      -6.206  -4.916 -21.115  1.00  0.00     0.099 C 
HETATM   19  O5  UNK   900      -5.674  -5.440 -19.942  1.00  0.00    -0.335 OA
ENDROOT
BRANCH  16  20
HETATM   20  O3  UNK   900      -9.428  -4.265 -22.795  1.00  0.00    -0.321 OA
BRANCH  20  21
HETATM   21  C14 UNK   900     -10.353  -5.196 -23.329  1.00  0.00     0.238 C 
BRANCH  21  22
HETATM   22  C15 UNK   900     -10.614  -6.326 -22.388  1.00  0.00     0.282 C 
HETATM   23  O4  UNK   900     -11.813  -6.441 -21.992  1.00  0.00    -0.268 OA
HETATM   24  N2  UNK   900      -9.798  -7.474 -22.303  1.00  0.00    -0.231 NA
BRANCH  24  25
HETATM   25  C16 UNK   900     -10.292  -8.830 -22.247  1.00  0.00     0.157 C 
BRANCH  25  26
HETATM   26  C17 UNK   900      -9.235  -9.790 -21.800  1.00  0.00     0.021 C 
HETATM   27  C18 UNK   900      -7.912  -9.365 -21.788  1.00  0.00     0.001 C 
HETATM   28  C19 UNK   900      -7.033  -9.770 -20.792  1.00  0.00     0.020 C 
HETATM   29  C20 UNK   900      -7.523 -10.511 -19.724  1.00  0.00     0.099 C 
HETATM   30  N3  UNK   900      -8.639 -11.235 -19.978  1.00  0.00    -0.243 NA
HETATM   31  C21 UNK   900      -9.559 -10.743 -20.843  1.00  0.00     0.097 C 
ENDBRANCH  25  26
ENDBRANCH  24  25
ENDBRANCH  21  22
ENDBRANCH  20  21
ENDBRANCH  16  20
TORSDOF 5
ENDMDL
MODEL 5
REMARK VINA RESULT:      -5.5     23.540     26.189
REMARK  5 active torsions:
REMARK  status: ('A' for Active; 'I' for Inactive)
REMARK       I    between atoms: C2_2  and  N1_4 
REMARK    1  A    between atoms: C13_16  and  O3_17 
REMARK    2  A    between atoms: O3_17  and  C14_18 
REMARK    3  A    between atoms: C14_18  and  C15_19 
REMARK       I    between atoms: C15_19  and  N2_21 
REMARK    4  A    between atoms: N2_21  and  C16_22 
REMARK    5  A    between atoms: C16_22  and  C17_23 
ROOT
HETATM    1  C1  UNK   900       0.145 -14.811 -13.184  1.00  0.00     0.098 C 
HETATM    2  C2  UNK   900      -0.429 -14.365 -14.491  1.00  0.00     0.234 C 
HETATM    3  O1  UNK   900       0.405 -14.256 -15.440  1.00  0.00    -0.272 OA
HETATM    4  N1  UNK   900      -1.501 -13.412 -14.519  1.00  0.00    -0.320 N 
HETATM    5  C3  UNK   900      -2.270 -13.384 -15.740  1.00  0.00     0.106 C 
HETATM    6  C4  UNK   900      -3.151 -12.191 -15.890  1.00  0.00     0.052 C 
HETATM    7  C5  UNK   900      -2.642 -10.941 -15.241  1.00  0.00     0.109 C 
HETATM    8  C6  UNK   900      -1.238 -11.067 -14.704  1.00  0.00     0.052 C 
HETATM    9  C7  UNK   900      -1.282 -12.218 -13.705  1.00  0.00     0.106 C 
HETATM   10  C8  UNK   900      -3.538 -10.669 -14.037  1.00  0.00     0.097 C 
HETATM   11  C9  UNK   900      -3.456  -9.263 -13.601  1.00  0.00     0.177 C 
HETATM   12  O2  UNK   900      -3.625  -8.994 -12.377  1.00  0.00    -0.291 OA
HETATM   13  C10 UNK   900      -3.567  -8.241 -14.649  1.00  0.00     0.057 C 
HETATM   14  C11 UNK   900      -3.416  -6.929 -14.221  1.00  0.00     0.007 C 
HETATM   15  C12 UNK   900      -2.976  -5.947 -15.093  1.00  0.00     0.024 C 
HETATM   16  C13 UNK   900      -3.042  -6.248 -16.443  1.00  0.00     0.097 C 
HETATM   17  C22 UNK   900      -2.965  -7.573 -16.824  1.00  0.00     0.049 C 
HETATM   18  C23 UNK   900      -3.062  -8.596 -15.891  1.00  0.00     0.099 C 
HETATM   19  O5  UNK   900      -2.692  -9.903 -16.187  1.00  0.00    -0.335 OA
ENDROOT
BRANCH  16  20
HETATM   20  O3  UNK   900      -3.173  -5.215 -17.370  1.00  0.00    -0.321 OA
BRANCH  20  21
HETATM   21  C14 UNK   900      -2.390  -5.156 -18.548  1.00  0.00     0.238 C 
BRANCH  21  22
HETATM   22  C15 UNK   900      -3.229  -5.225 -19.781  1.00  0.00     0.282 C 
HETATM   23  O4  UNK   900      -2.954  -6.173 -20.577  1.00  0.00    -0.268 OA
HETATM   24  N2  UNK   900      -4.519  -4.661 -19.879  1.00  0.00    -0.231 NA
BRANCH  24  25
HETATM   25  C16 UNK   900      -5.665  -5.327 -20.451  1.00  0.00     0.157 C 
BRANCH  25  26
HETATM   26  C17 UNK   900      -6.462  -4.411 -21.326  1.00  0.00     0.021 C 
HETATM   27  C18 UNK   900      -5.790  -3.447 -22.067  1.00  0.00     0.001 C 
HETATM   28  C19 UNK   900      -6.203  -3.104 -23.349  1.00  0.00     0.020 C 
HETATM   29  C20 UNK   900      -7.229  -3.831 -23.940  1.00  0.00     0.099 C 
HETATM   30  N3  UNK   900      -8.096  -4.421 -23.084  1.00  0.00    -0.243 NA
HETATM   31  C21 UNK   900      -7.635  -4.886 -21.898  1.00  0.00     0.097 C 
ENDBRANCH  25  26
ENDBRANCH  24  25
ENDBRANCH  21  22
ENDBRANCH  20  21
ENDBRANCH  16  20
TORSDOF 5
ENDMDL
MODEL 6
REMARK VINA RESULT:      -5.3     42.680     44.948
REMARK  5 active torsions:
REMARK  status: ('A' for Active; 'I' for Inactive)
REMARK       I    between atoms: C2_2  and  N1_4 
REMARK    1  A    between atoms: C13_16  and  O3_17 
REMARK    2  A    between atoms: O3_17  and  C14_18 
REMARK    3  A    between atoms: C14_18  and  C15_19 
REMARK       I    between atoms: C15_19  and  N2_21 
REMARK    4  A    between atoms: N2_21  and  C16_22 
REMARK    5  A    between atoms: C16_22  and  C17_23 
ROOT
HETATM    1  C1  UNK   900     -26.824  32.241  -8.244  1.00  0.00     0.098 C 
HETATM    2  C2  UNK   900     -27.796  32.031  -9.361  1.00  0.00     0.234 C 
HETATM    3  O1  UNK   900     -29.017  32.164  -9.048  1.00  0.00    -0.272 OA
HETATM    4  N1  UNK   900     -27.536  31.041 -10.366  1.00  0.00    -0.320 N 
HETATM    5  C3  UNK   900     -28.260  31.211 -11.602  1.00  0.00     0.106 C 
HETATM    6  C4  UNK   900     -28.241  30.021 -12.500  1.00  0.00     0.052 C 
HETATM    7  C5  UNK   900     -28.160  28.700 -11.801  1.00  0.00     0.109 C 
HETATM    8  C6  UNK   900     -28.296  28.800 -10.301  1.00  0.00     0.052 C 
HETATM    9  C7  UNK   900     -27.170  29.724  -9.848  1.00  0.00     0.106 C 
HETATM   10  C8  UNK   900     -26.768  28.140 -12.069  1.00  0.00     0.097 C 
HETATM   11  C9  UNK   900     -26.713  26.682 -11.852  1.00  0.00     0.177 C 
HETATM   12  O2  UNK   900     -25.627  26.165 -11.463  1.00  0.00    -0.291 OA
HETATM   13  C10 UNK   900     -27.785  25.886 -12.461  1.00  0.00     0.057 C 
HETATM   14  C11 UNK   900     -27.748  24.526 -12.183  1.00  0.00     0.007 C 
HETATM   15  C12 UNK   900     -28.906  23.766 -12.219  1.00  0.00     0.024 C 
HETATM   16  C13 UNK   900     -29.990  24.326 -12.874  1.00  0.00     0.097 C 
HETATM   17  C22 UNK   900     -30.085  25.702 -12.927  1.00  0.00     0.049 C 
HETATM   18  C23 UNK   900     -29.019  26.511 -12.555  1.00  0.00     0.099 C 
HETATM   19  O5  UNK   900     -29.174  27.871 -12.310  1.00  0.00    -0.335 OA
ENDROOT
BRANCH  16  20
HETATM   20  O3  UNK   900     -30.950  23.493 -13.446  1.00  0.00    -0.321 OA
BRANCH  20  21
HETATM   21  C14 UNK   900     -31.978  22.890 -12.681  1.00  0.00     0.238 C 
BRANCH  21  22
HETATM   22  C15 UNK   900     -32.725  21.860 -13.461  1.00  0.00     0.282 C 
HETATM   23  O4  UNK   900     -32.706  22.008 -14.720  1.00  0.00    -0.268 OA
HETATM   24  N2  UNK   900     -33.010  20.567 -12.972  1.00  0.00    -0.231 NA
BRANCH  24  25
HETATM   25  C16 UNK   900     -32.835  19.347 -13.726  1.00  0.00     0.157 C 
BRANCH  25  26
HETATM   26  C17 UNK   900     -34.117  18.886 -14.343  1.00  0.00     0.021 C 
HETATM   27  C18 UNK   900     -35.310  19.162 -13.687  1.00  0.00     0.001 C 
HETATM   28  C19 UNK   900     -36.463  19.485 -14.391  1.00  0.00     0.020 C 
HETATM   29  C20 UNK   900     -36.384  19.655 -15.767  1.00  0.00     0.099 C 
HETATM   30  N3  UNK   900     -35.380  18.987 -16.383  1.00  0.00    -0.243 NA
HETATM   31  C21 UNK   900     -34.206  18.817 -15.728  1.00  0.00     0.097 C 
ENDBRANCH  25  26
ENDBRANCH  24  25
ENDBRANCH  21  22
ENDBRANCH  20  21
ENDBRANCH  16  20
TORSDOF 5
ENDMDL
MODEL 7
REMARK VINA RESULT:      -5.0     18.447     23.781
REMARK  5 active torsions:
REMARK  status: ('A' for Active; 'I' for Inactive)
REMARK       I    between atoms: C2_2  and  N1_4 
REMARK    1  A    between atoms: C13_16  and  O3_17 
REMARK    2  A    between atoms: O3_17  and  C14_18 
REMARK    3  A    between atoms: C14_18  and  C15_19 
REMARK       I    between atoms: C15_19  and  N2_21 
REMARK    4  A    between atoms: N2_21  and  C16_22 
REMARK    5  A    between atoms: C16_22  and  C17_23 
ROOT
HETATM    1  C1  UNK   900     -36.909 -10.652 -40.112  1.00  0.00     0.098 C 
HETATM    2  C2  UNK   900     -36.790  -9.424 -39.266  1.00  0.00     0.234 C 
HETATM    3  O1  UNK   900     -35.982  -8.547 -39.696  1.00  0.00    -0.272 OA
HETATM    4  N1  UNK   900     -36.867  -9.523 -37.837  1.00  0.00    -0.320 N 
HETATM    5  C3  UNK   900     -37.190  -8.296 -37.150  1.00  0.00     0.106 C 
HETATM    6  C4  UNK   900     -36.946  -8.328 -35.679  1.00  0.00     0.052 C 
HETATM    7  C5  UNK   900     -35.822  -9.213 -35.241  1.00  0.00     0.109 C 
HETATM    8  C6  UNK   900     -35.015  -9.777 -36.385  1.00  0.00     0.052 C 
HETATM    9  C7  UNK   900     -36.009 -10.548 -37.247  1.00  0.00     0.106 C 
HETATM   10  C8  UNK   900     -36.447 -10.407 -34.529  1.00  0.00     0.097 C 
HETATM   11  C9  UNK   900     -35.477 -11.094 -33.656  1.00  0.00     0.177 C 
HETATM   12  O2  UNK   900     -35.601 -12.337 -33.467  1.00  0.00    -0.291 OA
HETATM   13  C10 UNK   900     -34.673 -10.244 -32.769  1.00  0.00     0.057 C 
HETATM   14  C11 UNK   900     -33.719 -10.909 -32.010  1.00  0.00     0.007 C 
HETATM   15  C12 UNK   900     -32.587 -10.248 -31.561  1.00  0.00     0.024 C 
HETATM   16  C13 UNK   900     -32.629  -8.864 -31.592  1.00  0.00     0.097 C 
HETATM   17  C22 UNK   900     -33.441  -8.253 -32.526  1.00  0.00     0.049 C 
HETATM   18  C23 UNK   900     -34.372  -8.981 -33.255  1.00  0.00     0.099 C 
HETATM   19  O5  UNK   900     -34.981  -8.469 -34.396  1.00  0.00    -0.335 OA
ENDROOT
BRANCH  16  20
HETATM   20  O3  UNK   900     -31.852  -8.135 -30.694  1.00  0.00    -0.321 OA
BRANCH  20  21
HETATM   21  C14 UNK   900     -31.085  -7.015 -31.097  1.00  0.00     0.238 C 
BRANCH  21  22
HETATM   22  C15 UNK   900     -29.758  -7.417 -31.651  1.00  0.00     0.282 C 
HETATM   23  O4  UNK   900     -29.292  -6.662 -32.556  1.00  0.00    -0.268 OA
HETATM   24  N2  UNK   900     -28.835  -8.226 -30.954  1.00  0.00    -0.231 NA
BRANCH  24  25
HETATM   25  C16 UNK   900     -27.420  -7.957 -30.853  1.00  0.00     0.157 C 
BRANCH  25  26
HETATM   26  C17 UNK   900     -26.665  -9.136 -30.326  1.00  0.00     0.021 C 
HETATM   27  C18 UNK   900     -25.315  -9.255 -30.633  1.00  0.00     0.001 C 
HETATM   28  C19 UNK   900     -24.406  -9.756 -29.711  1.00  0.00     0.020 C 
HETATM   29  C20 UNK   900     -24.840 -10.025 -28.418  1.00  0.00     0.099 C 
HETATM   30  N3  UNK   900     -26.159 -10.304 -28.290  1.00  0.00    -0.243 NA
HETATM   31  C21 UNK   900     -27.044  -9.682 -29.106  1.00  0.00     0.097 C 
ENDBRANCH  25  26
ENDBRANCH  24  25
ENDBRANCH  21  22
ENDBRANCH  20  21
ENDBRANCH  16  20
TORSDOF 5
ENDMDL
MODEL 8
REMARK VINA RESULT:      -4.9     41.464     45.122
REMARK  5 active torsions:
REMARK  status: ('A' for Active; 'I' for Inactive)
REMARK       I    between atoms: C2_2  and  N1_4 
REMARK    1  A    between atoms: C13_16  and  O3_17 
REMARK    2  A    between atoms: O3_17  and  C14_18 
REMARK    3  A    between atoms: C14_18  and  C15_19 
REMARK       I    between atoms: C15_19  and  N2_21 
REMARK    4  A    between atoms: N2_21  and  C16_22 
REMARK    5  A    between atoms: C16_22  and  C17_23 
ROOT
HETATM    1  C1  UNK   900     -19.949  30.477 -10.747  1.00  0.00     0.098 C 
HETATM    2  C2  UNK   900     -20.502  29.540 -11.774  1.00  0.00     0.234 C 
HETATM    3  O1  UNK   900     -21.058  28.498 -11.312  1.00  0.00    -0.272 OA
HETATM    4  N1  UNK   900     -19.822  29.357 -13.023  1.00  0.00    -0.320 N 
HETATM    5  C3  UNK   900     -20.627  28.814 -14.091  1.00  0.00     0.106 C 
HETATM    6  C4  UNK   900     -19.851  28.324 -15.265  1.00  0.00     0.052 C 
HETATM    7  C5  UNK   900     -18.488  27.792 -14.947  1.00  0.00     0.109 C 
HETATM    8  C6  UNK   900     -18.213  27.678 -13.467  1.00  0.00     0.052 C 
HETATM    9  C7  UNK   900     -18.391  29.086 -12.908  1.00  0.00     0.106 C 
HETATM   10  C8  UNK   900     -17.480  28.796 -15.493  1.00  0.00     0.097 C 
HETATM   11  C9  UNK   900     -16.146  28.192 -15.671  1.00  0.00     0.177 C 
HETATM   12  O2  UNK   900     -15.124  28.924 -15.545  1.00  0.00    -0.291 OA
HETATM   13  C10 UNK   900     -16.099  26.892 -16.352  1.00  0.00     0.057 C 
HETATM   14  C11 UNK   900     -14.840  26.313 -16.444  1.00  0.00     0.007 C 
HETATM   15  C12 UNK   900     -14.701  24.939 -16.557  1.00  0.00     0.024 C 
HETATM   16  C13 UNK   900     -15.833  24.234 -16.927  1.00  0.00     0.097 C 
HETATM   17  C22 UNK   900     -17.068  24.763 -16.610  1.00  0.00     0.049 C 
HETATM   18  C23 UNK   900     -17.195  26.067 -16.152  1.00  0.00     0.099 C 
HETATM   19  O5  UNK   900     -18.359  26.528 -15.546  1.00  0.00    -0.335 OA
ENDROOT
BRANCH  16  20
HETATM   20  O3  UNK   900     -15.695  23.018 -17.595  1.00  0.00    -0.321 OA
BRANCH  20  21
HETATM   21  C14 UNK   900     -16.616  22.592 -18.584  1.00  0.00     0.238 C 
BRANCH  21  22
HETATM   22  C15 UNK   900     -16.649  21.106 -18.713  1.00  0.00     0.282 C 
HETATM   23  O4  UNK   900     -16.207  20.642 -19.807  1.00  0.00    -0.268 OA
HETATM   24  N2  UNK   900     -16.672  20.227 -17.608  1.00  0.00    -0.231 NA
BRANCH  24  25
HETATM   25  C16 UNK   900     -15.852  19.045 -17.481  1.00  0.00     0.157 C 
BRANCH  25  26
HETATM   26  C17 UNK   900     -14.431  19.386 -17.160  1.00  0.00     0.021 C 
HETATM   27  C18 UNK   900     -14.135  19.886 -15.898  1.00  0.00     0.001 C 
HETATM   28  C19 UNK   900     -12.960  19.543 -15.242  1.00  0.00     0.020 C 
HETATM   29  C20 UNK   900     -12.129  18.585 -15.811  1.00  0.00     0.099 C 
HETATM   30  N3  UNK   900     -12.216  18.459 -17.156  1.00  0.00    -0.243 NA
HETATM   31  C21 UNK   900     -13.415  18.651 -17.758  1.00  0.00     0.097 C 
ENDBRANCH  25  26
ENDBRANCH  24  25
ENDBRANCH  21  22
ENDBRANCH  20  21
ENDBRANCH  16  20
TORSDOF 5
ENDMDL
MODEL 9
REMARK VINA RESULT:      -4.8     20.892     22.716
REMARK  5 active torsions:
REMARK  status: ('A' for Active; 'I' for Inactive)
REMARK       I    between atoms: C2_2  and  N1_4 
REMARK    1  A    between atoms: C13_16  and  O3_17 
REMARK    2  A    between atoms: O3_17  and  C14_18 
REMARK    3  A    between atoms: C14_18  and  C15_19 
REMARK       I    between atoms: C15_19  and  N2_21 
REMARK    4  A    between atoms: N2_21  and  C16_22 
REMARK    5  A    between atoms: C16_22  and  C17_23 
ROOT
HETATM    1  C1  UNK   900     -49.377 -15.036 -25.020  1.00  0.00     0.098 C 
HETATM    2  C2  UNK   900     -49.016 -15.030 -23.569  1.00  0.00     0.234 C 
HETATM    3  O1  UNK   900     -49.575 -14.128 -22.875  1.00  0.00    -0.272 OA
HETATM    4  N1  UNK   900     -47.684 -15.369 -23.157  1.00  0.00    -0.320 N 
HETATM    5  C3  UNK   900     -47.548 -15.769 -21.777  1.00  0.00     0.106 C 
HETATM    6  C4  UNK   900     -46.144 -15.798 -21.276  1.00  0.00     0.052 C 
HETATM    7  C5  UNK   900     -45.224 -14.802 -21.910  1.00  0.00     0.109 C 
HETATM    8  C6  UNK   900     -45.926 -13.821 -22.817  1.00  0.00     0.052 C 
HETATM    9  C7  UNK   900     -46.623 -14.668 -23.876  1.00  0.00     0.106 C 
HETATM   10  C8  UNK   900     -44.260 -15.587 -22.793  1.00  0.00     0.097 C 
HETATM   11  C9  UNK   900     -43.040 -14.815 -23.093  1.00  0.00     0.177 C 
HETATM   12  O2  UNK   900     -42.447 -15.014 -24.191  1.00  0.00    -0.291 OA
HETATM   13  C10 UNK   900     -42.382 -14.157 -21.957  1.00  0.00     0.057 C 
HETATM   14  C11 UNK   900     -41.276 -13.380 -22.277  1.00  0.00     0.007 C 
HETATM   15  C12 UNK   900     -40.894 -12.326 -21.462  1.00  0.00     0.024 C 
HETATM   16  C13 UNK   900     -41.421 -12.315 -20.182  1.00  0.00     0.097 C 
HETATM   17  C22 UNK   900     -42.643 -12.922 -19.970  1.00  0.00     0.049 C 
HETATM   18  C23 UNK   900     -43.222 -13.729 -20.940  1.00  0.00     0.099 C 
HETATM   19  O5  UNK   900     -44.560 -14.104 -20.887  1.00  0.00    -0.335 OA
ENDROOT
BRANCH  16  20
HETATM   20  O3  UNK   900     -40.715 -11.689 -19.156  1.00  0.00    -0.321 OA
BRANCH  20  21
HETATM   21  C14 UNK   900     -41.327 -10.761 -18.278  1.00  0.00     0.238 C 
BRANCH  21  22
HETATM   22  C15 UNK   900     -41.437  -9.403 -18.888  1.00  0.00     0.282 C 
HETATM   23  O4  UNK   900     -40.339  -8.857 -19.209  1.00  0.00    -0.268 OA
HETATM   24  N2  UNK   900     -42.600  -8.931 -19.534  1.00  0.00    -0.231 NA
BRANCH  24  25
HETATM   25  C16 UNK   900     -42.612  -8.240 -20.802  1.00  0.00     0.157 C 
BRANCH  25  26
HETATM   26  C17 UNK   900     -42.839  -9.178 -21.945  1.00  0.00     0.021 C 
HETATM   27  C18 UNK   900     -43.891 -10.082 -21.865  1.00  0.00     0.001 C 
HETATM   28  C19 UNK   900     -44.642 -10.417 -22.985  1.00  0.00     0.020 C 
HETATM   29  C20 UNK   900     -44.411  -9.737 -24.175  1.00  0.00     0.099 C 
HETATM   30  N3  UNK   900     -43.169  -9.221 -24.322  1.00  0.00    -0.243 NA
HETATM   31  C21 UNK   900     -42.515  -8.759 -23.229  1.00  0.00     0.097 C 
ENDBRANCH  25  26
ENDBRANCH  24  25
ENDBRANCH  21  22
ENDBRANCH  20  21
ENDBRANCH  16  20
TORSDOF 5
ENDMDL
