MODEL 1
REMARK VINA RESULT:      -6.1      0.000      0.000
REMARK  9 active torsions:
REMARK  status: ('A' for Active; 'I' for Inactive)
REMARK    1  A    between atoms: O2_2  and  C5_14 
REMARK    2  A    between atoms: O2_2  and  C7_16 
REMARK    3  A    between atoms: O3_3  and  C1_10 
REMARK    4  A    between atoms: O4_4  and  C2_11 
REMARK    5  A    between atoms: O5_5  and  C3_12 
REMARK    6  A    between atoms: O7_7  and  C6_15 
REMARK    7  A    between atoms: O8_8  and  C16_25 
REMARK    8  A    between atoms: O9_9  and  C21_30 
REMARK    9  A    between atoms: C4_13  and  C6_15 
ROOT
HETATM    1  O6  UNK   900      -8.992  -1.798 -16.040  1.00  0.00    -0.381 OA
HETATM    2  C7  UNK   900      -5.757  -0.573 -14.628  1.00  0.00     0.095 A 
HETATM    3  C8  UNK   900      -6.948  -0.626 -15.362  1.00  0.00     0.006 A 
HETATM    4  C9  UNK   900      -7.456   0.545 -15.944  1.00  0.00    -0.044 A 
HETATM    5  C10 UNK   900      -8.750   0.500 -16.713  1.00  0.00     0.070 C 
HETATM    6  C11 UNK   900      -9.069  -0.926 -17.172  1.00  0.00     0.122 C 
HETATM    7  C12 UNK   900      -5.075   0.641 -14.441  1.00  0.00     0.042 A 
HETATM    8  C13 UNK   900      -7.646  -1.943 -15.574  1.00  0.00     0.210 C 
HETATM    9  C14 UNK   900      -5.599   1.824 -15.011  1.00  0.00    -0.017 A 
HETATM   10  C15 UNK   900      -6.788   1.761 -15.754  1.00  0.00     0.020 A 
HETATM   11  C16 UNK   900      -3.883   0.704 -13.700  1.00  0.00     0.084 A 
HETATM   12  C17 UNK   900     -10.477  -1.017 -17.743  1.00  0.00     0.040 C 
HETATM   13  C19 UNK   900      -4.919   3.038 -14.819  1.00  0.00     0.049 A 
HETATM   14  C20 UNK   900      -3.220   1.918 -13.521  1.00  0.00     0.074 A 
HETATM   15  C21 UNK   900      -3.737   3.083 -14.079  1.00  0.00     0.071 A 
ENDROOT
BRANCH   2  16
HETATM   16  O2  UNK   900      -5.282  -1.746 -14.106  1.00  0.00    -0.316 OA
BRANCH  16  17
HETATM   17  C5  UNK   900      -4.557  -2.595 -14.990  1.00  0.00     0.298 C 
HETATM   18  O1  UNK   900      -3.153  -2.517 -14.727  1.00  0.00    -0.348 OA
HETATM   19  C4  UNK   900      -2.378  -3.304 -15.636  1.00  0.00     0.179 C 
HETATM   20  C1  UNK   900      -2.757  -4.788 -15.535  1.00  0.00     0.183 C 
HETATM   21  C2  UNK   900      -4.266  -4.969 -15.722  1.00  0.00     0.183 C 
HETATM   22  C3  UNK   900      -5.044  -4.031 -14.799  1.00  0.00     0.205 C 
BRANCH  19  23
HETATM   23  C6  UNK   900      -0.907  -3.078 -15.302  1.00  0.00     0.198 C 
BRANCH  23  24
HETATM   24  O7  UNK   900      -0.824  -2.129 -14.254  1.00  0.00    -0.398 OA
HETATM   25  H23 UNK   900      -1.379  -1.372 -14.507  1.00  0.00     0.209 HD
ENDBRANCH  23  24
ENDBRANCH  19  23
BRANCH  20  26
HETATM   26  O3  UNK   900      -2.065  -5.518 -16.546  1.00  0.00    -0.385 OA
HETATM   27  C18 UNK   900      -2.482  -5.124 -17.844  1.00  0.00     0.202 C 
ENDBRANCH  20  26
BRANCH  21  28
HETATM   28  O4  UNK   900      -4.613  -6.324 -15.447  1.00  0.00    -0.390 OA
HETATM   29  H13 UNK   900      -4.670  -6.789 -16.298  1.00  0.00     0.210 HD
ENDBRANCH  21  28
BRANCH  22  30
HETATM   30  O5  UNK   900      -4.819  -4.402 -13.436  1.00  0.00    -0.388 OA
HETATM   31  H14 UNK   900      -5.652  -4.740 -13.067  1.00  0.00     0.210 HD
ENDBRANCH  22  30
ENDBRANCH  16  17
ENDBRANCH   2  16
BRANCH  11  32
HETATM   32  O8  UNK   900      -3.312  -0.393 -13.119  1.00  0.00    -0.355 OA
HETATM   33  C22 UNK   900      -3.067  -0.324 -11.718  1.00  0.00     0.210 C 
ENDBRANCH  11  32
BRANCH  15  34
HETATM   34  O9  UNK   900      -3.089   4.268 -13.904  1.00  0.00    -0.356 OA
HETATM   35  C23 UNK   900      -2.437   4.471 -12.652  1.00  0.00     0.210 C 
ENDBRANCH  15  34
TORSDOF 9
ENDMDL
MODEL 2
REMARK VINA RESULT:      -5.8     20.522     22.471
REMARK  9 active torsions:
REMARK  status: ('A' for Active; 'I' for Inactive)
REMARK    1  A    between atoms: O2_2  and  C5_14 
REMARK    2  A    between atoms: O2_2  and  C7_16 
REMARK    3  A    between atoms: O3_3  and  C1_10 
REMARK    4  A    between atoms: O4_4  and  C2_11 
REMARK    5  A    between atoms: O5_5  and  C3_12 
REMARK    6  A    between atoms: O7_7  and  C6_15 
REMARK    7  A    between atoms: O8_8  and  C16_25 
REMARK    8  A    between atoms: O9_9  and  C21_30 
REMARK    9  A    between atoms: C4_13  and  C6_15 
ROOT
HETATM    1  O6  UNK   900      -9.035 -13.054   2.579  1.00  0.00    -0.381 OA
HETATM    2  C7  UNK   900     -10.149  -9.605   3.488  1.00  0.00     0.095 A 
HETATM    3  C8  UNK   900     -10.072 -10.848   2.848  1.00  0.00     0.006 A 
HETATM    4  C9  UNK   900     -11.125 -11.269   2.023  1.00  0.00    -0.044 A 
HETATM    5  C10 UNK   900     -11.060 -12.617   1.353  1.00  0.00     0.070 C 
HETATM    6  C11 UNK   900      -9.617 -13.124   1.273  1.00  0.00     0.122 C 
HETATM    7  C12 UNK   900     -11.277  -8.782   3.338  1.00  0.00     0.042 A 
HETATM    8  C13 UNK   900      -8.838 -11.699   2.999  1.00  0.00     0.210 C 
HETATM    9  C14 UNK   900     -12.348  -9.218   2.523  1.00  0.00    -0.017 A 
HETATM   10  C15 UNK   900     -12.258 -10.460   1.877  1.00  0.00     0.020 A 
HETATM   11  C16 UNK   900     -11.367  -7.537   3.981  1.00  0.00     0.084 A 
HETATM   12  C17 UNK   900      -9.568 -14.573   0.812  1.00  0.00     0.040 C 
HETATM   13  C19 UNK   900     -13.478  -8.396   2.377  1.00  0.00     0.049 A 
HETATM   14  C20 UNK   900     -12.495  -6.733   3.825  1.00  0.00     0.074 A 
HETATM   15  C21 UNK   900     -13.550  -7.163   3.025  1.00  0.00     0.071 A 
ENDROOT
BRANCH   2  16
HETATM   16  O2  UNK   900      -9.083  -9.220   4.257  1.00  0.00    -0.316 OA
BRANCH  16  17
HETATM   17  C5  UNK   900      -8.750 -10.059   5.358  1.00  0.00     0.298 C 
HETATM   18  O1  UNK   900      -7.333 -10.230   5.451  1.00  0.00    -0.348 OA
HETATM   19  C4  UNK   900      -6.953 -11.120   6.505  1.00  0.00     0.179 C 
HETATM   20  C1  UNK   900      -7.416 -10.585   7.867  1.00  0.00     0.183 C 
HETATM   21  C2  UNK   900      -8.919 -10.291   7.843  1.00  0.00     0.183 C 
HETATM   22  C3  UNK   900      -9.283  -9.420   6.640  1.00  0.00     0.205 C 
BRANCH  19  23
HETATM   23  C6  UNK   900      -5.437 -11.276   6.451  1.00  0.00     0.198 C 
BRANCH  23  24
HETATM   24  O7  UNK   900      -4.895 -10.177   5.741  1.00  0.00    -0.398 OA
HETATM   25  H23 UNK   900      -5.462 -10.028   4.966  1.00  0.00     0.209 HD
ENDBRANCH  23  24
ENDBRANCH  19  23
BRANCH  20  26
HETATM   26  O3  UNK   900      -7.142 -11.559   8.870  1.00  0.00    -0.385 OA
HETATM   27  C18 UNK   900      -7.898 -12.742   8.662  1.00  0.00     0.202 C 
ENDBRANCH  20  26
BRANCH  21  28
HETATM   28  O4  UNK   900      -9.286  -9.632   9.052  1.00  0.00    -0.390 OA
HETATM   29  H13 UNK   900     -10.048  -9.062   8.854  1.00  0.00     0.210 HD
ENDBRANCH  21  28
BRANCH  22  30
HETATM   30  O5  UNK   900      -8.682  -8.130   6.781  1.00  0.00    -0.388 OA
HETATM   31  H14 UNK   900      -9.317  -7.541   7.221  1.00  0.00     0.210 HD
ENDBRANCH  22  30
ENDBRANCH  16  17
ENDBRANCH   2  16
BRANCH  11  32
HETATM   32  O8  UNK   900     -10.376  -7.045   4.784  1.00  0.00    -0.355 OA
HETATM   33  C22 UNK   900     -10.497  -5.686   5.196  1.00  0.00     0.210 C 
ENDBRANCH  11  32
BRANCH  15  34
HETATM   34  O9  UNK   900     -14.653  -6.378   2.873  1.00  0.00    -0.356 OA
HETATM   35  C23 UNK   900     -15.206  -6.284   1.561  1.00  0.00     0.210 C 
ENDBRANCH  15  34
TORSDOF 9
ENDMDL
MODEL 3
REMARK VINA RESULT:      -5.8     22.218     24.816
REMARK  9 active torsions:
REMARK  status: ('A' for Active; 'I' for Inactive)
REMARK    1  A    between atoms: O2_2  and  C5_14 
REMARK    2  A    between atoms: O2_2  and  C7_16 
REMARK    3  A    between atoms: O3_3  and  C1_10 
REMARK    4  A    between atoms: O4_4  and  C2_11 
REMARK    5  A    between atoms: O5_5  and  C3_12 
REMARK    6  A    between atoms: O7_7  and  C6_15 
REMARK    7  A    between atoms: O8_8  and  C16_25 
REMARK    8  A    between atoms: O9_9  and  C21_30 
REMARK    9  A    between atoms: C4_13  and  C6_15 
ROOT
HETATM    1  O6  UNK   900      -7.175  -9.754   7.249  1.00  0.00    -0.381 OA
HETATM    2  C7  UNK   900     -10.134  -7.618   6.448  1.00  0.00     0.095 A 
HETATM    3  C8  UNK   900      -9.021  -8.454   6.294  1.00  0.00     0.006 A 
HETATM    4  C9  UNK   900      -8.787  -9.075   5.059  1.00  0.00    -0.044 A 
HETATM    5  C10 UNK   900      -7.607  -9.996   4.894  1.00  0.00     0.070 C 
HETATM    6  C11 UNK   900      -6.545  -9.728   5.964  1.00  0.00     0.122 C 
HETATM    7  C12 UNK   900     -11.036  -7.410   5.392  1.00  0.00     0.042 A 
HETATM    8  C13 UNK   900      -8.051  -8.636   7.432  1.00  0.00     0.210 C 
HETATM    9  C14 UNK   900     -10.810  -8.054   4.153  1.00  0.00    -0.017 A 
HETATM   10  C15 UNK   900      -9.688  -8.883   4.003  1.00  0.00     0.020 A 
HETATM   11  C16 UNK   900     -12.158  -6.579   5.539  1.00  0.00     0.084 A 
HETATM   12  C17 UNK   900      -5.465 -10.799   5.947  1.00  0.00     0.040 C 
HETATM   13  C19 UNK   900     -11.716  -7.850   3.099  1.00  0.00     0.049 A 
HETATM   14  C20 UNK   900     -13.047  -6.387   4.482  1.00  0.00     0.074 A 
HETATM   15  C21 UNK   900     -12.827  -7.023   3.263  1.00  0.00     0.071 A 
ENDROOT
BRANCH   2  16
HETATM   16  O2  UNK   900     -10.304  -7.006   7.661  1.00  0.00    -0.316 OA
BRANCH  16  17
HETATM   17  C5  UNK   900     -10.278  -7.844   8.812  1.00  0.00     0.298 C 
HETATM   18  O1  UNK   900      -9.714  -7.151   9.929  1.00  0.00    -0.348 OA
HETATM   19  C4  UNK   900      -9.606  -7.976  11.093  1.00  0.00     0.179 C 
HETATM   20  C1  UNK   900     -10.987  -8.471  11.542  1.00  0.00     0.183 C 
HETATM   21  C2  UNK   900     -11.710  -9.162  10.383  1.00  0.00     0.183 C 
HETATM   22  C3  UNK   900     -11.707  -8.278   9.136  1.00  0.00     0.205 C 
BRANCH  19  23
HETATM   23  C6  UNK   900      -8.925  -7.150  12.180  1.00  0.00     0.198 C 
BRANCH  23  24
HETATM   24  O7  UNK   900      -7.577  -6.935  11.805  1.00  0.00    -0.398 OA
HETATM   25  H23 UNK   900      -7.365  -6.009  12.011  1.00  0.00     0.209 HD
ENDBRANCH  23  24
ENDBRANCH  19  23
BRANCH  20  26
HETATM   26  O3  UNK   900     -10.825  -9.395  12.616  1.00  0.00    -0.385 OA
HETATM   27  C18 UNK   900     -10.106 -10.546  12.203  1.00  0.00     0.202 C 
ENDBRANCH  20  26
BRANCH  21  28
HETATM   28  O4  UNK   900     -13.050  -9.451  10.774  1.00  0.00    -0.390 OA
HETATM   29  H13 UNK   900     -13.634  -8.852  10.280  1.00  0.00     0.210 HD
ENDBRANCH  21  28
BRANCH  22  30
HETATM   30  O5  UNK   900     -12.487  -7.103   9.378  1.00  0.00    -0.388 OA
HETATM   31  H14 UNK   900     -13.146  -7.307  10.063  1.00  0.00     0.210 HD
ENDBRANCH  22  30
ENDBRANCH  16  17
ENDBRANCH   2  16
BRANCH  11  32
HETATM   32  O8  UNK   900     -12.446  -5.922   6.702  1.00  0.00    -0.355 OA
HETATM   33  C22 UNK   900     -13.724  -5.299   6.791  1.00  0.00     0.210 C 
ENDBRANCH  11  32
BRANCH  15  34
HETATM   34  O9  UNK   900     -13.694  -6.835   2.231  1.00  0.00    -0.356 OA
HETATM   35  C23 UNK   900     -13.233  -7.179   0.926  1.00  0.00     0.210 C 
ENDBRANCH  15  34
TORSDOF 9
ENDMDL
MODEL 4
REMARK VINA RESULT:      -5.7     31.946     34.955
REMARK  9 active torsions:
REMARK  status: ('A' for Active; 'I' for Inactive)
REMARK    1  A    between atoms: O2_2  and  C5_14 
REMARK    2  A    between atoms: O2_2  and  C7_16 
REMARK    3  A    between atoms: O3_3  and  C1_10 
REMARK    4  A    between atoms: O4_4  and  C2_11 
REMARK    5  A    between atoms: O5_5  and  C3_12 
REMARK    6  A    between atoms: O7_7  and  C6_15 
REMARK    7  A    between atoms: O8_8  and  C16_25 
REMARK    8  A    between atoms: O9_9  and  C21_30 
REMARK    9  A    between atoms: C4_13  and  C6_15 
ROOT
HETATM    1  O6  UNK   900      21.639  -1.232   6.106  1.00  0.00    -0.381 OA
HETATM    2  C7  UNK   900      22.755  -4.545   4.790  1.00  0.00     0.095 A 
HETATM    3  C8  UNK   900      22.568  -3.453   5.646  1.00  0.00     0.006 A 
HETATM    4  C9  UNK   900      22.870  -3.582   7.009  1.00  0.00    -0.044 A 
HETATM    5  C10 UNK   900      22.647  -2.419   7.941  1.00  0.00     0.070 C 
HETATM    6  C11 UNK   900      22.589  -1.098   7.168  1.00  0.00     0.122 C 
HETATM    7  C12 UNK   900      23.218  -5.778   5.279  1.00  0.00     0.042 A 
HETATM    8  C13 UNK   900      22.100  -2.133   5.094  1.00  0.00     0.210 C 
HETATM    9  C14 UNK   900      23.502  -5.913   6.657  1.00  0.00    -0.017 A 
HETATM   10  C15 UNK   900      23.322  -4.811   7.507  1.00  0.00     0.020 A 
HETATM   11  C16 UNK   900      23.402  -6.881   4.428  1.00  0.00     0.084 A 
HETATM   12  C17 UNK   900      22.135   0.043   8.066  1.00  0.00     0.040 C 
HETATM   13  C19 UNK   900      23.960  -7.147   7.146  1.00  0.00     0.049 A 
HETATM   14  C20 UNK   900      23.858  -8.099   4.930  1.00  0.00     0.074 A 
HETATM   15  C21 UNK   900      24.136  -8.233   6.287  1.00  0.00     0.071 A 
ENDROOT
BRANCH   2  16
HETATM   16  O2  UNK   900      22.478  -4.364   3.461  1.00  0.00    -0.316 OA
BRANCH  16  17
HETATM   17  C5  UNK   900      23.228  -3.365   2.779  1.00  0.00     0.298 C 
HETATM   18  O1  UNK   900      24.521  -3.861   2.419  1.00  0.00    -0.348 OA
HETATM   19  C4  UNK   900      25.336  -2.869   1.789  1.00  0.00     0.179 C 
HETATM   20  C1  UNK   900      24.686  -2.371   0.491  1.00  0.00     0.183 C 
HETATM   21  C2  UNK   900      23.257  -1.890   0.759  1.00  0.00     0.183 C 
HETATM   22  C3  UNK   900      22.462  -2.948   1.524  1.00  0.00     0.205 C 
BRANCH  19  23
HETATM   23  C6  UNK   900      26.702  -3.495   1.527  1.00  0.00     0.198 C 
BRANCH  23  24
HETATM   24  O7  UNK   900      26.773  -3.868   0.163  1.00  0.00    -0.398 OA
HETATM   25  H23 UNK   900      26.493  -4.797   0.104  1.00  0.00     0.209 HD
ENDBRANCH  23  24
ENDBRANCH  19  23
BRANCH  20  26
HETATM   26  O3  UNK   900      25.456  -1.292  -0.034  1.00  0.00    -0.385 OA
HETATM   27  C18 UNK   900      25.527  -0.213   0.885  1.00  0.00     0.202 C 
ENDBRANCH  20  26
BRANCH  21  28
HETATM   28  O4  UNK   900      22.619  -1.602  -0.483  1.00  0.00    -0.390 OA
HETATM   29  H13 UNK   900      23.306  -1.601  -1.171  1.00  0.00     0.210 HD
ENDBRANCH  21  28
BRANCH  22  30
HETATM   30  O5  UNK   900      22.288  -4.106   0.701  1.00  0.00    -0.388 OA
HETATM   31  H14 UNK   900      21.403  -4.068   0.300  1.00  0.00     0.210 HD
ENDBRANCH  22  30
ENDBRANCH  16  17
ENDBRANCH   2  16
BRANCH  11  32
HETATM   32  O8  UNK   900      23.150  -6.832   3.086  1.00  0.00    -0.355 OA
HETATM   33  C22 UNK   900      24.120  -7.424   2.227  1.00  0.00     0.210 C 
ENDBRANCH  11  32
BRANCH  15  34
HETATM   34  O9  UNK   900      24.581  -9.423   6.777  1.00  0.00    -0.356 OA
HETATM   35  C23 UNK   900      25.948  -9.487   7.181  1.00  0.00     0.210 C 
ENDBRANCH  15  34
TORSDOF 9
ENDMDL
MODEL 5
REMARK VINA RESULT:      -5.6     20.999     23.642
REMARK  9 active torsions:
REMARK  status: ('A' for Active; 'I' for Inactive)
REMARK    1  A    between atoms: O2_2  and  C5_14 
REMARK    2  A    between atoms: O2_2  and  C7_16 
REMARK    3  A    between atoms: O3_3  and  C1_10 
REMARK    4  A    between atoms: O4_4  and  C2_11 
REMARK    5  A    between atoms: O5_5  and  C3_12 
REMARK    6  A    between atoms: O7_7  and  C6_15 
REMARK    7  A    between atoms: O8_8  and  C16_25 
REMARK    8  A    between atoms: O9_9  and  C21_30 
REMARK    9  A    between atoms: C4_13  and  C6_15 
ROOT
HETATM    1  O6  UNK   900      -9.904 -11.550   1.482  1.00  0.00    -0.381 OA
HETATM    2  C7  UNK   900      -8.714 -10.547   4.878  1.00  0.00     0.095 A 
HETATM    3  C8  UNK   900      -9.144 -11.333   3.802  1.00  0.00     0.006 A 
HETATM    4  C9  UNK   900      -8.982 -12.725   3.854  1.00  0.00    -0.044 A 
HETATM    5  C10 UNK   900      -9.419 -13.575   2.689  1.00  0.00     0.070 C 
HETATM    6  C11 UNK   900     -10.439 -12.834   1.818  1.00  0.00     0.122 C 
HETATM    7  C12 UNK   900      -8.098 -11.127   5.999  1.00  0.00     0.042 A 
HETATM    8  C13 UNK   900      -9.829 -10.691   2.625  1.00  0.00     0.210 C 
HETATM    9  C14 UNK   900      -7.916 -12.529   6.040  1.00  0.00    -0.017 A 
HETATM   10  C15 UNK   900      -8.360 -13.311   4.963  1.00  0.00     0.020 A 
HETATM   11  C16 UNK   900      -7.657 -10.346   7.079  1.00  0.00     0.084 A 
HETATM   12  C17 UNK   900     -10.707 -13.588   0.525  1.00  0.00     0.040 C 
HETATM   13  C19 UNK   900      -7.296 -13.108   7.159  1.00  0.00     0.049 A 
HETATM   14  C20 UNK   900      -7.044 -10.937   8.183  1.00  0.00     0.074 A 
HETATM   15  C21 UNK   900      -6.862 -12.317   8.223  1.00  0.00     0.071 A 
ENDROOT
BRANCH   2  16
HETATM   16  O2  UNK   900      -8.921  -9.196   4.799  1.00  0.00    -0.316 OA
BRANCH  16  17
HETATM   17  C5  UNK   900     -10.242  -8.733   5.062  1.00  0.00     0.298 C 
HETATM   18  O1  UNK   900     -10.248  -7.825   6.168  1.00  0.00    -0.348 OA
HETATM   19  C4  UNK   900     -11.564  -7.384   6.512  1.00  0.00     0.179 C 
HETATM   20  C1  UNK   900     -12.216  -6.640   5.338  1.00  0.00     0.183 C 
HETATM   21  C2  UNK   900     -12.184  -7.504   4.074  1.00  0.00     0.183 C 
HETATM   22  C3  UNK   900     -10.774  -8.032   3.811  1.00  0.00     0.205 C 
BRANCH  19  23
HETATM   23  C6  UNK   900     -11.443  -6.492   7.743  1.00  0.00     0.198 C 
BRANCH  23  24
HETATM   24  O7  UNK   900     -10.092  -6.091   7.878  1.00  0.00    -0.398 OA
HETATM   25  H23 UNK   900      -9.959  -5.837   8.806  1.00  0.00     0.209 HD
ENDBRANCH  23  24
ENDBRANCH  19  23
BRANCH  20  26
HETATM   26  O3  UNK   900     -13.569  -6.338   5.669  1.00  0.00    -0.385 OA
HETATM   27  C18 UNK   900     -14.341  -7.519   5.819  1.00  0.00     0.202 C 
ENDBRANCH  20  26
BRANCH  21  28
HETATM   28  O4  UNK   900     -12.630  -6.728   2.965  1.00  0.00    -0.390 OA
HETATM   29  H13 UNK   900     -13.343  -7.223   2.529  1.00  0.00     0.210 HD
ENDBRANCH  21  28
BRANCH  22  30
HETATM   30  O5  UNK   900      -9.901  -6.940   3.505  1.00  0.00    -0.388 OA
HETATM   31  H14 UNK   900      -8.986  -7.267   3.510  1.00  0.00     0.210 HD
ENDBRANCH  22  30
ENDBRANCH  16  17
ENDBRANCH   2  16
BRANCH  11  32
HETATM   32  O8  UNK   900      -7.795  -8.987   7.116  1.00  0.00    -0.355 OA
HETATM   33  C22 UNK   900      -7.678  -8.362   8.391  1.00  0.00     0.210 C 
ENDBRANCH  11  32
BRANCH  15  34
HETATM   34  O9  UNK   900      -6.264 -12.894   9.301  1.00  0.00    -0.356 OA
HETATM   35  C23 UNK   900      -5.763 -14.219   9.132  1.00  0.00     0.210 C 
ENDBRANCH  15  34
TORSDOF 9
ENDMDL
MODEL 6
REMARK VINA RESULT:      -5.6     17.887     21.980
REMARK  9 active torsions:
REMARK  status: ('A' for Active; 'I' for Inactive)
REMARK    1  A    between atoms: O2_2  and  C5_14 
REMARK    2  A    between atoms: O2_2  and  C7_16 
REMARK    3  A    between atoms: O3_3  and  C1_10 
REMARK    4  A    between atoms: O4_4  and  C2_11 
REMARK    5  A    between atoms: O5_5  and  C3_12 
REMARK    6  A    between atoms: O7_7  and  C6_15 
REMARK    7  A    between atoms: O8_8  and  C16_25 
REMARK    8  A    between atoms: O9_9  and  C21_30 
REMARK    9  A    between atoms: C4_13  and  C6_15 
ROOT
HETATM    1  O6  UNK   900      13.327  -1.438  -4.034  1.00  0.00    -0.381 OA
HETATM    2  C7  UNK   900      14.392  -4.936  -4.800  1.00  0.00     0.095 A 
HETATM    3  C8  UNK   900      14.159  -3.742  -4.105  1.00  0.00     0.006 A 
HETATM    4  C9  UNK   900      14.256  -3.725  -2.707  1.00  0.00    -0.044 A 
HETATM    5  C10 UNK   900      13.982  -2.451  -1.951  1.00  0.00     0.070 C 
HETATM    6  C11 UNK   900      14.123  -1.229  -2.863  1.00  0.00     0.122 C 
HETATM    7  C12 UNK   900      14.697  -6.125  -4.117  1.00  0.00     0.042 A 
HETATM    8  C13 UNK   900      13.865  -2.474  -4.862  1.00  0.00     0.210 C 
HETATM    9  C14 UNK   900      14.773  -6.110  -2.705  1.00  0.00    -0.017 A 
HETATM   10  C15 UNK   900      14.549  -4.908  -2.016  1.00  0.00     0.020 A 
HETATM   11  C16 UNK   900      14.925  -7.328  -4.805  1.00  0.00     0.084 A 
HETATM   12  C17 UNK   900      13.625   0.032  -2.172  1.00  0.00     0.040 C 
HETATM   13  C19 UNK   900      15.073  -7.300  -2.022  1.00  0.00     0.049 A 
HETATM   14  C20 UNK   900      15.222  -8.500  -4.111  1.00  0.00     0.074 A 
HETATM   15  C21 UNK   900      15.295  -8.487  -2.721  1.00  0.00     0.071 A 
ENDROOT
BRANCH   2  16
HETATM   16  O2  UNK   900      14.319  -4.899  -6.167  1.00  0.00    -0.316 OA
BRANCH  16  17
HETATM   17  C5  UNK   900      13.116  -5.378  -6.759  1.00  0.00     0.298 C 
HETATM   18  O1  UNK   900      11.978  -4.957  -6.001  1.00  0.00    -0.348 OA
HETATM   19  C4  UNK   900      10.749  -5.472  -6.522  1.00  0.00     0.179 C 
HETATM   20  C1  UNK   900      10.517  -4.986  -7.959  1.00  0.00     0.183 C 
HETATM   21  C2  UNK   900      11.726  -5.319  -8.838  1.00  0.00     0.183 C 
HETATM   22  C3  UNK   900      13.022  -4.837  -8.185  1.00  0.00     0.205 C 
BRANCH  19  23
HETATM   23  C6  UNK   900       9.629  -5.019  -5.590  1.00  0.00     0.198 C 
BRANCH  23  24
HETATM   24  O7  UNK   900       9.212  -3.724  -5.983  1.00  0.00    -0.398 OA
HETATM   25  H23 UNK   900       9.269  -3.154  -5.199  1.00  0.00     0.209 HD
ENDBRANCH  23  24
ENDBRANCH  19  23
BRANCH  20  26
HETATM   26  O3  UNK   900       9.358  -5.625  -8.489  1.00  0.00    -0.385 OA
HETATM   27  C18 UNK   900       9.544  -7.028  -8.591  1.00  0.00     0.202 C 
ENDBRANCH  20  26
BRANCH  21  28
HETATM   28  O4  UNK   900      11.562  -4.703 -10.113  1.00  0.00    -0.390 OA
HETATM   29  H13 UNK   900      12.432  -4.695 -10.547  1.00  0.00     0.210 HD
ENDBRANCH  21  28
BRANCH  22  30
HETATM   30  O5  UNK   900      13.025  -3.407  -8.122  1.00  0.00    -0.388 OA
HETATM   31  H14 UNK   900      12.402  -3.129  -7.429  1.00  0.00     0.210 HD
ENDBRANCH  22  30
ENDBRANCH  16  17
ENDBRANCH   2  16
BRANCH  11  32
HETATM   32  O8  UNK   900      14.870  -7.424  -6.167  1.00  0.00    -0.355 OA
HETATM   33  C22 UNK   900      15.764  -8.346  -6.783  1.00  0.00     0.210 C 
ENDBRANCH  11  32
BRANCH  15  34
HETATM   34  O9  UNK   900      15.585  -9.632  -2.044  1.00  0.00    -0.356 OA
HETATM   35  C23 UNK   900      14.737  -9.971  -0.949  1.00  0.00     0.210 C 
ENDBRANCH  15  34
TORSDOF 9
ENDMDL
MODEL 7
REMARK VINA RESULT:      -5.6     20.399     22.679
REMARK  9 active torsions:
REMARK  status: ('A' for Active; 'I' for Inactive)
REMARK    1  A    between atoms: O2_2  and  C5_14 
REMARK    2  A    between atoms: O2_2  and  C7_16 
REMARK    3  A    between atoms: O3_3  and  C1_10 
REMARK    4  A    between atoms: O4_4  and  C2_11 
REMARK    5  A    between atoms: O5_5  and  C3_12 
REMARK    6  A    between atoms: O7_7  and  C6_15 
REMARK    7  A    between atoms: O8_8  and  C16_25 
REMARK    8  A    between atoms: O9_9  and  C21_30 
REMARK    9  A    between atoms: C4_13  and  C6_15 
ROOT
HETATM    1  O6  UNK   900     -14.419  -5.572   5.598  1.00  0.00    -0.381 OA
HETATM    2  C7  UNK   900     -11.137  -7.347   5.403  1.00  0.00     0.095 A 
HETATM    3  C8  UNK   900     -12.215  -6.604   5.899  1.00  0.00     0.006 A 
HETATM    4  C9  UNK   900     -12.325  -6.378   7.278  1.00  0.00    -0.044 A 
HETATM    5  C10 UNK   900     -13.496  -5.602   7.821  1.00  0.00     0.070 C 
HETATM    6  C11 UNK   900     -14.140  -4.742   6.730  1.00  0.00     0.122 C 
HETATM    7  C12 UNK   900     -10.174  -7.893   6.268  1.00  0.00     0.042 A 
HETATM    8  C13 UNK   900     -13.218  -6.003   4.949  1.00  0.00     0.210 C 
HETATM    9  C14 UNK   900     -10.298  -7.682   7.661  1.00  0.00    -0.017 A 
HETATM   10  C15 UNK   900     -11.375  -6.928   8.150  1.00  0.00     0.020 A 
HETATM   11  C16 UNK   900      -9.093  -8.645   5.780  1.00  0.00     0.084 A 
HETATM   12  C17 UNK   900     -15.453  -4.140   7.208  1.00  0.00     0.040 C 
HETATM   13  C19 UNK   900      -9.337  -8.232   8.526  1.00  0.00     0.049 A 
HETATM   14  C20 UNK   900      -8.148  -9.183   6.653  1.00  0.00     0.074 A 
HETATM   15  C21 UNK   900      -8.271  -8.978   8.024  1.00  0.00     0.071 A 
ENDROOT
BRANCH   2  16
HETATM   16  O2  UNK   900     -11.053  -7.515   4.047  1.00  0.00    -0.316 OA
BRANCH  16  17
HETATM   17  C5  UNK   900     -12.194  -8.063   3.395  1.00  0.00     0.298 C 
HETATM   18  O1  UNK   900     -12.326  -7.529   2.075  1.00  0.00    -0.348 OA
HETATM   19  C4  UNK   900     -13.498  -8.003   1.405  1.00  0.00     0.179 C 
HETATM   20  C1  UNK   900     -13.463  -9.529   1.253  1.00  0.00     0.183 C 
HETATM   21  C2  UNK   900     -13.241 -10.196   2.613  1.00  0.00     0.183 C 
HETATM   22  C3  UNK   900     -12.037  -9.583   3.330  1.00  0.00     0.205 C 
BRANCH  19  23
HETATM   23  C6  UNK   900     -13.565  -7.307   0.049  1.00  0.00     0.198 C 
BRANCH  23  24
HETATM   24  O7  UNK   900     -13.185  -8.233  -0.953  1.00  0.00    -0.398 OA
HETATM   25  H23 UNK   900     -13.287  -9.122  -0.575  1.00  0.00     0.209 HD
ENDBRANCH  23  24
ENDBRANCH  19  23
BRANCH  20  26
HETATM   26  O3  UNK   900     -14.702  -9.974   0.707  1.00  0.00    -0.385 OA
HETATM   27  C18 UNK   900     -15.784  -9.687   1.579  1.00  0.00     0.202 C 
ENDBRANCH  20  26
BRANCH  21  28
HETATM   28  O4  UNK   900     -13.034 -11.594   2.422  1.00  0.00    -0.390 OA
HETATM   29  H13 UNK   900     -13.487 -12.058   3.145  1.00  0.00     0.210 HD
ENDBRANCH  21  28
BRANCH  22  30
HETATM   30  O5  UNK   900     -10.842  -9.878   2.600  1.00  0.00    -0.388 OA
HETATM   31  H14 UNK   900     -10.810 -10.836   2.439  1.00  0.00     0.210 HD
ENDBRANCH  22  30
ENDBRANCH  16  17
ENDBRANCH   2  16
BRANCH  11  32
HETATM   32  O8  UNK   900      -8.903  -8.893   4.450  1.00  0.00    -0.355 OA
HETATM   33  C22 UNK   900      -7.788  -9.707   4.100  1.00  0.00     0.210 C 
ENDBRANCH  11  32
BRANCH  15  34
HETATM   34  O9  UNK   900      -7.348  -9.504   8.877  1.00  0.00    -0.356 OA
HETATM   35  C23 UNK   900      -7.387 -10.914   9.086  1.00  0.00     0.210 C 
ENDBRANCH  15  34
TORSDOF 9
ENDMDL
MODEL 8
REMARK VINA RESULT:      -5.5     20.277     22.356
REMARK  9 active torsions:
REMARK  status: ('A' for Active; 'I' for Inactive)
REMARK    1  A    between atoms: O2_2  and  C5_14 
REMARK    2  A    between atoms: O2_2  and  C7_16 
REMARK    3  A    between atoms: O3_3  and  C1_10 
REMARK    4  A    between atoms: O4_4  and  C2_11 
REMARK    5  A    between atoms: O5_5  and  C3_12 
REMARK    6  A    between atoms: O7_7  and  C6_15 
REMARK    7  A    between atoms: O8_8  and  C16_25 
REMARK    8  A    between atoms: O9_9  and  C21_30 
REMARK    9  A    between atoms: C4_13  and  C6_15 
ROOT
HETATM    1  O6  UNK   900     -12.717  -8.448   2.499  1.00  0.00    -0.381 OA
HETATM    2  C7  UNK   900      -9.683  -9.115   4.575  1.00  0.00     0.095 A 
HETATM    3  C8  UNK   900     -10.876  -8.543   4.115  1.00  0.00     0.006 A 
HETATM    4  C9  UNK   900     -11.594  -7.675   4.949  1.00  0.00    -0.044 A 
HETATM    5  C10 UNK   900     -12.891  -7.076   4.469  1.00  0.00     0.070 C 
HETATM    6  C11 UNK   900     -12.983  -7.112   2.941  1.00  0.00     0.122 C 
HETATM    7  C12 UNK   900      -9.208  -8.854   5.871  1.00  0.00     0.042 A 
HETATM    8  C13 UNK   900     -11.349  -8.813   2.711  1.00  0.00     0.210 C 
HETATM    9  C14 UNK   900      -9.945  -7.996   6.718  1.00  0.00    -0.017 A 
HETATM   10  C15 UNK   900     -11.133  -7.418   6.246  1.00  0.00     0.020 A 
HETATM   11  C16 UNK   900      -8.017  -9.430   6.344  1.00  0.00     0.084 A 
HETATM   12  C17 UNK   900     -14.376  -6.726   2.465  1.00  0.00     0.040 C 
HETATM   13  C19 UNK   900      -9.471  -7.739   8.015  1.00  0.00     0.049 A 
HETATM   14  C20 UNK   900      -7.560  -9.164   7.634  1.00  0.00     0.074 A 
HETATM   15  C21 UNK   900      -8.287  -8.321   8.470  1.00  0.00     0.071 A 
ENDROOT
BRANCH   2  16
HETATM   16  O2  UNK   900      -8.998  -9.930   3.715  1.00  0.00    -0.316 OA
BRANCH  16  17
HETATM   17  C5  UNK   900      -9.701 -11.055   3.197  1.00  0.00     0.298 C 
HETATM   18  O1  UNK   900      -8.921 -11.725   2.204  1.00  0.00    -0.348 OA
HETATM   19  C4  UNK   900      -9.615 -12.825   1.607  1.00  0.00     0.179 C 
HETATM   20  C1  UNK   900      -9.975 -13.881   2.661  1.00  0.00     0.183 C 
HETATM   21  C2  UNK   900     -10.748 -13.241   3.817  1.00  0.00     0.183 C 
HETATM   22  C3  UNK   900     -10.011 -12.011   4.349  1.00  0.00     0.205 C 
BRANCH  19  23
HETATM   23  C6  UNK   900      -8.714 -13.402   0.520  1.00  0.00     0.198 C 
BRANCH  23  24
HETATM   24  O7  UNK   900      -7.816 -12.393   0.096  1.00  0.00    -0.398 OA
HETATM   25  H23 UNK   900      -6.916 -12.716   0.271  1.00  0.00     0.209 HD
ENDBRANCH  23  24
ENDBRANCH  19  23
BRANCH  20  26
HETATM   26  O3  UNK   900     -10.780 -14.890   2.056  1.00  0.00    -0.385 OA
HETATM   27  C18 UNK   900     -12.030 -14.368   1.632  1.00  0.00     0.202 C 
ENDBRANCH  20  26
BRANCH  21  28
HETATM   28  O4  UNK   900     -10.912 -14.200   4.858  1.00  0.00    -0.390 OA
HETATM   29  H13 UNK   900     -11.621 -13.880   5.442  1.00  0.00     0.210 HD
ENDBRANCH  21  28
BRANCH  22  30
HETATM   30  O5  UNK   900      -8.773 -12.413   4.943  1.00  0.00    -0.388 OA
HETATM   31  H14 UNK   900      -8.611 -13.345   4.716  1.00  0.00     0.210 HD
ENDBRANCH  22  30
ENDBRANCH  16  17
ENDBRANCH   2  16
BRANCH  11  32
HETATM   32  O8  UNK   900      -7.248 -10.269   5.587  1.00  0.00    -0.355 OA
HETATM   33  C22 UNK   900      -5.842 -10.040   5.601  1.00  0.00     0.210 C 
ENDBRANCH  11  32
BRANCH  15  34
HETATM   34  O9  UNK   900      -7.841  -8.061   9.730  1.00  0.00    -0.356 OA
HETATM   35  C23 UNK   900      -7.241  -9.142  10.441  1.00  0.00     0.210 C 
ENDBRANCH  15  34
TORSDOF 9
ENDMDL
MODEL 9
REMARK VINA RESULT:      -5.5     14.567     16.444
REMARK  9 active torsions:
REMARK  status: ('A' for Active; 'I' for Inactive)
REMARK    1  A    between atoms: O2_2  and  C5_14 
REMARK    2  A    between atoms: O2_2  and  C7_16 
REMARK    3  A    between atoms: O3_3  and  C1_10 
REMARK    4  A    between atoms: O4_4  and  C2_11 
REMARK    5  A    between atoms: O5_5  and  C3_12 
REMARK    6  A    between atoms: O7_7  and  C6_15 
REMARK    7  A    between atoms: O8_8  and  C16_25 
REMARK    8  A    between atoms: O9_9  and  C21_30 
REMARK    9  A    between atoms: C4_13  and  C6_15 
ROOT
HETATM    1  O6  UNK   900     -13.411  -9.023  -0.707  1.00  0.00    -0.381 OA
HETATM    2  C7  UNK   900     -14.976  -6.839  -3.303  1.00  0.00     0.095 A 
HETATM    3  C8  UNK   900     -14.417  -7.269  -2.094  1.00  0.00     0.006 A 
HETATM    4  C9  UNK   900     -14.029  -6.322  -1.135  1.00  0.00    -0.044 A 
HETATM    5  C10 UNK   900     -13.403  -6.776   0.157  1.00  0.00     0.070 C 
HETATM    6  C11 UNK   900     -13.738  -8.243   0.447  1.00  0.00     0.122 C 
HETATM    7  C12 UNK   900     -15.133  -5.472  -3.584  1.00  0.00     0.042 A 
HETATM    8  C13 UNK   900     -14.288  -8.741  -1.803  1.00  0.00     0.210 C 
HETATM    9  C14 UNK   900     -14.721  -4.518  -2.624  1.00  0.00    -0.017 A 
HETATM   10  C15 UNK   900     -14.171  -4.956  -1.411  1.00  0.00     0.020 A 
HETATM   11  C16 UNK   900     -15.686  -5.031  -4.797  1.00  0.00     0.084 A 
HETATM   12  C17 UNK   900     -12.926  -8.770   1.620  1.00  0.00     0.040 C 
HETATM   13  C19 UNK   900     -14.873  -3.150  -2.908  1.00  0.00     0.049 A 
HETATM   14  C20 UNK   900     -15.831  -3.670  -5.062  1.00  0.00     0.074 A 
HETATM   15  C21 UNK   900     -15.424  -2.730  -4.119  1.00  0.00     0.071 A 
ENDROOT
BRANCH   2  16
HETATM   16  O2  UNK   900     -15.371  -7.800  -4.196  1.00  0.00    -0.316 OA
BRANCH  16  17
HETATM   17  C5  UNK   900     -14.365  -8.691  -4.666  1.00  0.00     0.298 C 
HETATM   18  O1  UNK   900     -14.921  -9.981  -4.937  1.00  0.00    -0.348 OA
HETATM   19  C4  UNK   900     -13.934 -10.931  -5.350  1.00  0.00     0.179 C 
HETATM   20  C1  UNK   900     -13.243 -10.476  -6.642  1.00  0.00     0.183 C 
HETATM   21  C2  UNK   900     -12.682  -9.061  -6.478  1.00  0.00     0.183 C 
HETATM   22  C3  UNK   900     -13.751  -8.111  -5.939  1.00  0.00     0.205 C 
BRANCH  19  23
HETATM   23  C6  UNK   900     -14.636 -12.273  -5.532  1.00  0.00     0.198 C 
BRANCH  23  24
HETATM   24  O7  UNK   900     -14.855 -12.483  -6.915  1.00  0.00    -0.398 OA
HETATM   25  H23 UNK   900     -14.915 -11.608  -7.333  1.00  0.00     0.209 HD
ENDBRANCH  23  24
ENDBRANCH  19  23
BRANCH  20  26
HETATM   26  O3  UNK   900     -12.179 -11.375  -6.945  1.00  0.00    -0.385 OA
HETATM   27  C18 UNK   900     -11.171 -11.336  -5.947  1.00  0.00     0.202 C 
ENDBRANCH  20  26
BRANCH  21  28
HETATM   28  O4  UNK   900     -12.207  -8.597  -7.740  1.00  0.00    -0.390 OA
HETATM   29  H13 UNK   900     -12.958  -8.192  -8.204  1.00  0.00     0.210 HD
ENDBRANCH  21  28
BRANCH  22  30
HETATM   30  O5  UNK   900     -14.791  -7.959  -6.909  1.00  0.00    -0.388 OA
HETATM   31  H14 UNK   900     -15.467  -7.361  -6.545  1.00  0.00     0.210 HD
ENDBRANCH  22  30
ENDBRANCH  16  17
ENDBRANCH   2  16
BRANCH  11  32
HETATM   32  O8  UNK   900     -16.108  -5.889  -5.774  1.00  0.00    -0.355 OA
HETATM   33  C22 UNK   900     -17.385  -5.631  -6.350  1.00  0.00     0.210 C 
ENDBRANCH  11  32
BRANCH  15  34
HETATM   34  O9  UNK   900     -15.565  -1.401  -4.378  1.00  0.00    -0.356 OA
HETATM   35  C23 UNK   900     -14.370  -0.630  -4.482  1.00  0.00     0.210 C 
ENDBRANCH  15  34
TORSDOF 9
ENDMDL
