MODEL 1
REMARK VINA RESULT:      -4.8      0.000      0.000
REMARK  7 active torsions:
REMARK  status: ('A' for Active; 'I' for Inactive)
REMARK    1  A    between atoms: O1_1  and  C10_14 
REMARK    2  A    between atoms: O2_2  and  C11_15 
REMARK    3  A    between atoms: O3_3  and  C14_18 
REMARK    4  A    between atoms: O4_4  and  C15_19 
REMARK    5  A    between atoms: C2_6  and  C11_15 
REMARK    6  A    between atoms: C8_12  and  C14_18 
REMARK    7  A    between atoms: C9_13  and  C15_19 
ROOT
HETATM    1  C1  UNK   900      17.792   5.642   2.908  1.00  0.00     0.019 C 
HETATM    2  C2  UNK   900      17.963   7.582   4.382  1.00  0.00    -0.018 C 
HETATM    3  C3  UNK   900      18.343   6.101   4.273  1.00  0.00     0.021 C 
HETATM    4  C4  UNK   900      16.622   6.578   2.654  1.00  0.00    -0.070 C 
HETATM    5  C5  UNK   900      17.493   4.130   2.871  1.00  0.00    -0.008 C 
HETATM    6  C6  UNK   900      16.552   7.592   3.775  1.00  0.00     0.046 C 
HETATM    7  C7  UNK   900      17.269   3.621   1.438  1.00  0.00     0.037 C 
HETATM    8  C8  UNK   900      15.824   6.578   1.564  1.00  0.00    -0.045 C 
HETATM    9  C9  UNK   900      15.989   5.638   0.376  1.00  0.00     0.069 C 
HETATM   10  C10 UNK   900      16.016   4.137   0.727  1.00  0.00     0.128 C 
HETATM   11  C12 UNK   900      18.930   8.473   3.580  1.00  0.00     0.018 C 
HETATM   12  C13 UNK   900      16.349   3.687   3.796  1.00  0.00     0.011 C 
ENDROOT
BRANCH   2  13
HETATM   13  C11 UNK   900      17.948   8.052   5.840  1.00  0.00     0.173 C 
BRANCH  13  14
HETATM   14  O2  UNK   900      17.161   7.146   6.591  1.00  0.00    -0.400 OA
HETATM   15  H24 UNK   900      16.233   7.298   6.342  1.00  0.00     0.209 HD
ENDBRANCH  13  14
ENDBRANCH   2  13
BRANCH   8  16
HETATM   16  C14 UNK   900      14.680   7.551   1.400  1.00  0.00     0.199 C 
BRANCH  16  17
HETATM   17  O3  UNK   900      13.548   7.060   2.085  1.00  0.00    -0.397 OA
HETATM   18  H25 UNK   900      13.841   6.787   2.971  1.00  0.00     0.209 HD
ENDBRANCH  16  17
ENDBRANCH   8  16
BRANCH   9  19
HETATM   19  C15 UNK   900      17.147   6.085  -0.530  1.00  0.00     0.175 C 
BRANCH  19  20
HETATM   20  O4  UNK   900      16.789   5.812  -1.870  1.00  0.00    -0.400 OA
HETATM   21  H26 UNK   900      17.139   4.933  -2.088  1.00  0.00     0.209 HD
ENDBRANCH  19  20
ENDBRANCH   9  19
BRANCH  10  22
HETATM   22  O1  UNK   900      15.881   3.407  -0.501  1.00  0.00    -0.395 OA
HETATM   23  H23 UNK   900      15.289   3.914  -1.083  1.00  0.00     0.210 HD
ENDBRANCH  10  22
TORSDOF 7
ENDMDL
MODEL 2
REMARK VINA RESULT:      -4.7     28.823     30.610
REMARK  7 active torsions:
REMARK  status: ('A' for Active; 'I' for Inactive)
REMARK    1  A    between atoms: O1_1  and  C10_14 
REMARK    2  A    between atoms: O2_2  and  C11_15 
REMARK    3  A    between atoms: O3_3  and  C14_18 
REMARK    4  A    between atoms: O4_4  and  C15_19 
REMARK    5  A    between atoms: C2_6  and  C11_15 
REMARK    6  A    between atoms: C8_12  and  C14_18 
REMARK    7  A    between atoms: C9_13  and  C15_19 
ROOT
HETATM    1  C1  UNK   900      -9.184 -10.273   4.959  1.00  0.00     0.019 C 
HETATM    2  C2  UNK   900      -7.035 -10.554   6.086  1.00  0.00    -0.018 C 
HETATM    3  C3  UNK   900      -8.062 -11.297   5.225  1.00  0.00     0.021 C 
HETATM    4  C4  UNK   900      -9.110  -9.333   6.150  1.00  0.00    -0.070 C 
HETATM    5  C5  UNK   900     -10.545 -10.946   4.689  1.00  0.00    -0.008 C 
HETATM    6  C6  UNK   900      -7.940  -9.737   7.022  1.00  0.00     0.046 C 
HETATM    7  C7  UNK   900     -11.569  -9.961   4.102  1.00  0.00     0.037 C 
HETATM    8  C8  UNK   900      -9.891  -8.251   6.361  1.00  0.00    -0.045 C 
HETATM    9  C9  UNK   900     -10.978  -7.774   5.406  1.00  0.00     0.069 C 
HETATM   10  C10 UNK   900     -12.031  -8.835   5.030  1.00  0.00     0.128 C 
HETATM   11  C12 UNK   900      -6.137  -9.642   5.231  1.00  0.00     0.018 C 
HETATM   12  C13 UNK   900     -11.133 -11.694   5.896  1.00  0.00     0.011 C 
ENDROOT
BRANCH   2  13
HETATM   13  C11 UNK   900      -6.152 -11.527   6.872  1.00  0.00     0.173 C 
BRANCH  13  14
HETATM   14  O2  UNK   900      -4.812 -11.082   6.784  1.00  0.00    -0.400 OA
HETATM   15  H24 UNK   900      -4.243 -11.837   7.011  1.00  0.00     0.209 HD
ENDBRANCH  13  14
ENDBRANCH   2  13
BRANCH   8  16
HETATM   16  C14 UNK   900      -9.741  -7.372   7.581  1.00  0.00     0.199 C 
BRANCH  16  17
HETATM   17  O3  UNK   900      -9.133  -6.155   7.207  1.00  0.00    -0.397 OA
HETATM   18  H25 UNK   900      -8.803  -6.263   6.299  1.00  0.00     0.209 HD
ENDBRANCH  16  17
ENDBRANCH   8  16
BRANCH   9  19
HETATM   19  C15 UNK   900     -10.374  -7.043   4.197  1.00  0.00     0.175 C 
BRANCH  19  20
HETATM   20  O4  UNK   900     -10.443  -5.653   4.444  1.00  0.00    -0.400 OA
HETATM   21  H26 UNK   900      -9.575  -5.277   4.221  1.00  0.00     0.209 HD
ENDBRANCH  19  20
ENDBRANCH   9  19
BRANCH  10  22
HETATM   22  O1  UNK   900     -13.114  -8.153   4.380  1.00  0.00    -0.395 OA
HETATM   23  H23 UNK   900     -13.942  -8.576   4.664  1.00  0.00     0.210 HD
ENDBRANCH  10  22
TORSDOF 7
ENDMDL
MODEL 3
REMARK VINA RESULT:      -4.7     28.878     30.871
REMARK  7 active torsions:
REMARK  status: ('A' for Active; 'I' for Inactive)
REMARK    1  A    between atoms: O1_1  and  C10_14 
REMARK    2  A    between atoms: O2_2  and  C11_15 
REMARK    3  A    between atoms: O3_3  and  C14_18 
REMARK    4  A    between atoms: O4_4  and  C15_19 
REMARK    5  A    between atoms: C2_6  and  C11_15 
REMARK    6  A    between atoms: C8_12  and  C14_18 
REMARK    7  A    between atoms: C9_13  and  C15_19 
ROOT
HETATM    1  C1  UNK   900      -9.385 -10.024   5.854  1.00  0.00     0.019 C 
HETATM    2  C2  UNK   900     -11.107 -10.220   4.132  1.00  0.00    -0.018 C 
HETATM    3  C3  UNK   900      -9.870 -10.926   4.700  1.00  0.00     0.021 C 
HETATM    4  C4  UNK   900      -9.873  -8.639   5.464  1.00  0.00    -0.070 C 
HETATM    5  C5  UNK   900      -7.875 -10.177   6.127  1.00  0.00    -0.008 C 
HETATM    6  C6  UNK   900     -10.683  -8.744   4.189  1.00  0.00     0.046 C 
HETATM    7  C7  UNK   900      -7.466  -9.547   7.468  1.00  0.00     0.037 C 
HETATM    8  C8  UNK   900      -9.703  -7.504   6.177  1.00  0.00    -0.045 C 
HETATM    9  C9  UNK   900      -9.003  -7.434   7.528  1.00  0.00     0.069 C 
HETATM   10  C10 UNK   900      -7.579  -8.023   7.560  1.00  0.00     0.128 C 
HETATM   11  C12 UNK   900     -12.354 -10.484   4.995  1.00  0.00     0.018 C 
HETATM   12  C13 UNK   900      -6.971  -9.681   4.988  1.00  0.00     0.011 C 
ENDROOT
BRANCH   2  13
HETATM   13  C11 UNK   900     -11.394 -10.663   2.694  1.00  0.00     0.173 C 
BRANCH  13  14
HETATM   14  O2  UNK   900     -10.159 -10.818   2.021  1.00  0.00    -0.400 OA
HETATM   15  H24 UNK   900     -10.248 -10.383   1.156  1.00  0.00     0.209 HD
ENDBRANCH  13  14
ENDBRANCH   2  13
BRANCH   8  16
HETATM   16  C14 UNK   900     -10.227  -6.167   5.705  1.00  0.00     0.199 C 
BRANCH  16  17
HETATM   17  O3  UNK   900     -11.530  -5.973   6.210  1.00  0.00    -0.397 OA
HETATM   18  H25 UNK   900     -11.519  -5.154   6.734  1.00  0.00     0.209 HD
ENDBRANCH  16  17
ENDBRANCH   8  16
BRANCH   9  19
HETATM   19  C15 UNK   900      -9.914  -7.948   8.654  1.00  0.00     0.175 C 
BRANCH  19  20
HETATM   20  O4  UNK   900      -9.665  -7.173   9.810  1.00  0.00    -0.400 OA
HETATM   21  H26 UNK   900      -9.224  -6.357   9.520  1.00  0.00     0.209 HD
ENDBRANCH  19  20
ENDBRANCH   9  19
BRANCH  10  22
HETATM   22  O1  UNK   900      -6.973  -7.616   8.796  1.00  0.00    -0.395 OA
HETATM   23  H23 UNK   900      -6.177  -8.159   8.927  1.00  0.00     0.210 HD
ENDBRANCH  10  22
TORSDOF 7
ENDMDL
MODEL 4
REMARK VINA RESULT:      -4.6     10.825     12.654
REMARK  7 active torsions:
REMARK  status: ('A' for Active; 'I' for Inactive)
REMARK    1  A    between atoms: O1_1  and  C10_14 
REMARK    2  A    between atoms: O2_2  and  C11_15 
REMARK    3  A    between atoms: O3_3  and  C14_18 
REMARK    4  A    between atoms: O4_4  and  C15_19 
REMARK    5  A    between atoms: C2_6  and  C11_15 
REMARK    6  A    between atoms: C8_12  and  C14_18 
REMARK    7  A    between atoms: C9_13  and  C15_19 
ROOT
HETATM    1  C1  UNK   900      24.751  -4.310   3.455  1.00  0.00     0.019 C 
HETATM    2  C2  UNK   900      22.601  -4.435   4.607  1.00  0.00    -0.018 C 
HETATM    3  C3  UNK   900      24.013  -5.030   4.602  1.00  0.00     0.021 C 
HETATM    4  C4  UNK   900      23.639  -3.912   2.499  1.00  0.00    -0.070 C 
HETATM    5  C5  UNK   900      25.901  -5.155   2.871  1.00  0.00    -0.008 C 
HETATM    6  C6  UNK   900      22.308  -4.302   3.105  1.00  0.00     0.046 C 
HETATM    7  C7  UNK   900      26.833  -4.321   1.977  1.00  0.00     0.037 C 
HETATM    8  C8  UNK   900      23.790  -3.235   1.339  1.00  0.00    -0.045 C 
HETATM    9  C9  UNK   900      25.124  -2.727   0.806  1.00  0.00     0.069 C 
HETATM   10  C10 UNK   900      26.226  -3.796   0.673  1.00  0.00     0.128 C 
HETATM   11  C12 UNK   900      22.568  -3.066   5.313  1.00  0.00     0.018 C 
HETATM   12  C13 UNK   900      25.445  -6.432   2.148  1.00  0.00     0.011 C 
ENDROOT
BRANCH   2  13
HETATM   13  C11 UNK   900      21.600  -5.371   5.291  1.00  0.00     0.173 C 
BRANCH  13  14
HETATM   14  O2  UNK   900      20.457  -5.481   4.463  1.00  0.00    -0.400 OA
HETATM   15  H24 UNK   900      19.749  -4.962   4.881  1.00  0.00     0.209 HD
ENDBRANCH  13  14
ENDBRANCH   2  13
BRANCH   8  16
HETATM   16  C14 UNK   900      22.619  -2.883   0.452  1.00  0.00     0.199 C 
BRANCH  16  17
HETATM   17  O3  UNK   900      22.004  -1.708   0.935  1.00  0.00    -0.397 OA
HETATM   18  H25 UNK   900      21.443  -1.361   0.221  1.00  0.00     0.209 HD
ENDBRANCH  16  17
ENDBRANCH   8  16
BRANCH   9  19
HETATM   19  C15 UNK   900      25.573  -1.459   1.550  1.00  0.00     0.175 C 
BRANCH  19  20
HETATM   20  O4  UNK   900      24.750  -0.389   1.133  1.00  0.00    -0.400 OA
HETATM   21  H26 UNK   900      24.227  -0.111   1.903  1.00  0.00     0.209 HD
ENDBRANCH  19  20
ENDBRANCH   9  19
BRANCH  10  22
HETATM   22  O1  UNK   900      27.290  -3.222  -0.101  1.00  0.00    -0.395 OA
HETATM   23  H23 UNK   900      27.202  -3.551  -1.012  1.00  0.00     0.210 HD
ENDBRANCH  10  22
TORSDOF 7
ENDMDL
MODEL 5
REMARK VINA RESULT:      -4.3      1.964      4.149
REMARK  7 active torsions:
REMARK  status: ('A' for Active; 'I' for Inactive)
REMARK    1  A    between atoms: O1_1  and  C10_14 
REMARK    2  A    between atoms: O2_2  and  C11_15 
REMARK    3  A    between atoms: O3_3  and  C14_18 
REMARK    4  A    between atoms: O4_4  and  C15_19 
REMARK    5  A    between atoms: C2_6  and  C11_15 
REMARK    6  A    between atoms: C8_12  and  C14_18 
REMARK    7  A    between atoms: C9_13  and  C15_19 
ROOT
HETATM    1  C1  UNK   900      16.988   7.616   2.463  1.00  0.00     0.019 C 
HETATM    2  C2  UNK   900      14.585   7.797   2.065  1.00  0.00    -0.018 C 
HETATM    3  C3  UNK   900      15.753   8.483   2.782  1.00  0.00     0.021 C 
HETATM    4  C4  UNK   900      16.410   6.233   2.216  1.00  0.00    -0.070 C 
HETATM    5  C5  UNK   900      18.082   7.729   3.544  1.00  0.00    -0.008 C 
HETATM    6  C6  UNK   900      14.900   6.311   2.297  1.00  0.00     0.046 C 
HETATM    7  C7  UNK   900      19.423   7.144   3.071  1.00  0.00     0.037 C 
HETATM    8  C8  UNK   900      17.108   5.126   1.882  1.00  0.00    -0.045 C 
HETATM    9  C9  UNK   900      18.616   5.091   1.669  1.00  0.00     0.069 C 
HETATM   10  C10 UNK   900      19.457   5.631   2.843  1.00  0.00     0.128 C 
HETATM   11  C12 UNK   900      14.563   8.142   0.564  1.00  0.00     0.018 C 
HETATM   12  C13 UNK   900      17.685   7.152   4.911  1.00  0.00     0.011 C 
ENDROOT
BRANCH   2  13
HETATM   13  C11 UNK   900      13.240   8.186   2.684  1.00  0.00     0.173 C 
BRANCH  13  14
HETATM   14  O2  UNK   900      12.208   7.625   1.895  1.00  0.00    -0.400 OA
HETATM   15  H24 UNK   900      12.353   7.920   0.980  1.00  0.00     0.209 HD
ENDBRANCH  13  14
ENDBRANCH   2  13
BRANCH   8  16
HETATM   16  C14 UNK   900      16.441   3.789   1.655  1.00  0.00     0.199 C 
BRANCH  16  17
HETATM   17  O3  UNK   900      17.428   2.816   1.388  1.00  0.00    -0.397 OA
HETATM   18  H25 UNK   900      18.281   3.278   1.323  1.00  0.00     0.209 HD
ENDBRANCH  16  17
ENDBRANCH   8  16
BRANCH   9  19
HETATM   19  C15 UNK   900      18.999   5.685   0.305  1.00  0.00     0.175 C 
BRANCH  19  20
HETATM   20  O4  UNK   900      18.282   4.990  -0.695  1.00  0.00    -0.400 OA
HETATM   21  H26 UNK   900      17.346   5.234  -0.600  1.00  0.00     0.209 HD
ENDBRANCH  19  20
ENDBRANCH   9  19
BRANCH  10  22
HETATM   22  O1  UNK   900      20.821   5.258   2.601  1.00  0.00    -0.395 OA
HETATM   23  H23 UNK   900      20.859   4.287   2.564  1.00  0.00     0.210 HD
ENDBRANCH  10  22
TORSDOF 7
ENDMDL
MODEL 6
REMARK VINA RESULT:      -4.3     12.348     14.621
REMARK  7 active torsions:
REMARK  status: ('A' for Active; 'I' for Inactive)
REMARK    1  A    between atoms: O1_1  and  C10_14 
REMARK    2  A    between atoms: O2_2  and  C11_15 
REMARK    3  A    between atoms: O3_3  and  C14_18 
REMARK    4  A    between atoms: O4_4  and  C15_19 
REMARK    5  A    between atoms: C2_6  and  C11_15 
REMARK    6  A    between atoms: C8_12  and  C14_18 
REMARK    7  A    between atoms: C9_13  and  C15_19 
ROOT
HETATM    1  C1  UNK   900      24.495  -4.244   3.964  1.00  0.00     0.019 C 
HETATM    2  C2  UNK   900      26.347  -3.861   2.418  1.00  0.00    -0.018 C 
HETATM    3  C3  UNK   900      25.279  -3.131   3.240  1.00  0.00     0.021 C 
HETATM    4  C4  UNK   900      24.659  -5.454   3.059  1.00  0.00    -0.070 C 
HETATM    5  C5  UNK   900      23.051  -3.822   4.305  1.00  0.00    -0.008 C 
HETATM    6  C6  UNK   900      25.571  -5.086   1.909  1.00  0.00     0.046 C 
HETATM    7  C7  UNK   900      22.391  -4.784   5.305  1.00  0.00     0.037 C 
HETATM    8  C8  UNK   900      24.157  -6.688   3.281  1.00  0.00    -0.045 C 
HETATM    9  C9  UNK   900      23.352  -7.082   4.513  1.00  0.00     0.069 C 
HETATM   10  C10 UNK   900      22.119  -6.203   4.799  1.00  0.00     0.128 C 
HETATM   11  C12 UNK   900      27.546  -4.275   3.292  1.00  0.00     0.018 C 
HETATM   12  C13 UNK   900      22.150  -3.598   3.082  1.00  0.00     0.011 C 
ENDROOT
BRANCH   2  13
HETATM   13  C11 UNK   900      26.851  -2.997   1.259  1.00  0.00     0.173 C 
BRANCH  13  14
HETATM   14  O2  UNK   900      26.419  -3.584   0.046  1.00  0.00    -0.400 OA
HETATM   15  H24 UNK   900      26.591  -4.539   0.112  1.00  0.00     0.209 HD
ENDBRANCH  13  14
ENDBRANCH   2  13
BRANCH   8  16
HETATM   16  C14 UNK   900      24.374  -7.833   2.319  1.00  0.00     0.199 C 
BRANCH  16  17
HETATM   17  O3  UNK   900      25.534  -8.544   2.694  1.00  0.00    -0.397 OA
HETATM   18  H25 UNK   900      25.746  -8.291   3.609  1.00  0.00     0.209 HD
ENDBRANCH  16  17
ENDBRANCH   8  16
BRANCH   9  19
HETATM   19  C15 UNK   900      24.266  -7.286   5.732  1.00  0.00     0.175 C 
BRANCH  19  20
HETATM   20  O4  UNK   900      23.792  -8.404   6.455  1.00  0.00    -0.400 OA
HETATM   21  H26 UNK   900      23.641  -8.112   7.369  1.00  0.00     0.209 HD
ENDBRANCH  19  20
ENDBRANCH   9  19
BRANCH  10  22
HETATM   22  O1  UNK   900      21.333  -6.876   5.793  1.00  0.00    -0.395 OA
HETATM   23  H23 UNK   900      20.503  -6.380   5.898  1.00  0.00     0.210 HD
ENDBRANCH  10  22
TORSDOF 7
ENDMDL
MODEL 7
REMARK VINA RESULT:      -4.3     20.688     23.066
REMARK  7 active torsions:
REMARK  status: ('A' for Active; 'I' for Inactive)
REMARK    1  A    between atoms: O1_1  and  C10_14 
REMARK    2  A    between atoms: O2_2  and  C11_15 
REMARK    3  A    between atoms: O3_3  and  C14_18 
REMARK    4  A    between atoms: O4_4  and  C15_19 
REMARK    5  A    between atoms: C2_6  and  C11_15 
REMARK    6  A    between atoms: C8_12  and  C14_18 
REMARK    7  A    between atoms: C9_13  and  C15_19 
ROOT
HETATM    1  C1  UNK   900      -3.634  14.273   7.963  1.00  0.00     0.019 C 
HETATM    2  C2  UNK   900      -1.508  14.859   9.012  1.00  0.00    -0.018 C 
HETATM    3  C3  UNK   900      -2.302  15.008   7.710  1.00  0.00     0.021 C 
HETATM    4  C4  UNK   900      -3.283  13.233   9.014  1.00  0.00    -0.070 C 
HETATM    5  C5  UNK   900      -4.278  13.755   6.661  1.00  0.00    -0.008 C 
HETATM    6  C6  UNK   900      -1.836  13.414   9.420  1.00  0.00     0.046 C 
HETATM    7  C7  UNK   900      -5.740  13.329   6.871  1.00  0.00     0.037 C 
HETATM    8  C8  UNK   900      -4.136  12.347   9.574  1.00  0.00    -0.045 C 
HETATM    9  C9  UNK   900      -5.623  12.264   9.255  1.00  0.00     0.069 C 
HETATM   10  C10 UNK   900      -5.966  12.104   7.760  1.00  0.00     0.128 C 
HETATM   11  C12 UNK   900      -1.977  15.867  10.078  1.00  0.00     0.018 C 
HETATM   12  C13 UNK   900      -3.480  12.648   5.955  1.00  0.00     0.011 C 
ENDROOT
BRANCH   2  13
HETATM   13  C11 UNK   900      -0.006  15.046   8.778  1.00  0.00     0.173 C 
BRANCH  13  14
HETATM   14  O2  UNK   900       0.280  14.708   7.435  1.00  0.00    -0.400 OA
HETATM   15  H24 UNK   900       1.135  15.114   7.212  1.00  0.00     0.209 HD
ENDBRANCH  13  14
ENDBRANCH   2  13
BRANCH   8  16
HETATM   16  C14 UNK   900      -3.692  11.347  10.615  1.00  0.00     0.199 C 
BRANCH  16  17
HETATM   17  O3  UNK   900      -4.637  10.301  10.691  1.00  0.00    -0.397 OA
HETATM   18  H25 UNK   900      -4.859  10.178  11.629  1.00  0.00     0.209 HD
ENDBRANCH  16  17
ENDBRANCH   8  16
BRANCH   9  19
HETATM   19  C15 UNK   900      -6.405  13.386   9.955  1.00  0.00     0.175 C 
BRANCH  19  20
HETATM   20  O4  UNK   900      -7.656  12.866  10.358  1.00  0.00    -0.400 OA
HETATM   21  H26 UNK   900      -7.624  12.755  11.323  1.00  0.00     0.209 HD
ENDBRANCH  19  20
ENDBRANCH   9  19
BRANCH  10  22
HETATM   22  O1  UNK   900      -7.354  11.753   7.673  1.00  0.00    -0.395 OA
HETATM   23  H23 UNK   900      -7.519  11.425   6.772  1.00  0.00     0.210 HD
ENDBRANCH  10  22
TORSDOF 7
ENDMDL
MODEL 8
REMARK VINA RESULT:      -4.2     11.403     13.099
REMARK  7 active torsions:
REMARK  status: ('A' for Active; 'I' for Inactive)
REMARK    1  A    between atoms: O1_1  and  C10_14 
REMARK    2  A    between atoms: O2_2  and  C11_15 
REMARK    3  A    between atoms: O3_3  and  C14_18 
REMARK    4  A    between atoms: O4_4  and  C15_19 
REMARK    5  A    between atoms: C2_6  and  C11_15 
REMARK    6  A    between atoms: C8_12  and  C14_18 
REMARK    7  A    between atoms: C9_13  and  C15_19 
ROOT
HETATM    1  C1  UNK   900      24.200  -5.287   5.096  1.00  0.00     0.019 C 
HETATM    2  C2  UNK   900      23.106  -3.541   6.409  1.00  0.00    -0.018 C 
HETATM    3  C3  UNK   900      23.704  -4.948   6.517  1.00  0.00     0.021 C 
HETATM    4  C4  UNK   900      23.308  -4.454   4.190  1.00  0.00    -0.070 C 
HETATM    5  C5  UNK   900      24.236  -6.805   4.831  1.00  0.00    -0.008 C 
HETATM    6  C6  UNK   900      22.397  -3.602   5.047  1.00  0.00     0.046 C 
HETATM    7  C7  UNK   900      25.034  -7.150   3.563  1.00  0.00     0.037 C 
HETATM    8  C8  UNK   900      23.371  -4.400   2.842  1.00  0.00    -0.045 C 
HETATM    9  C9  UNK   900      24.385  -5.161   1.996  1.00  0.00     0.069 C 
HETATM   10  C10 UNK   900      24.430  -6.683   2.237  1.00  0.00     0.128 C 
HETATM   11  C12 UNK   900      24.202  -2.459   6.426  1.00  0.00     0.018 C 
HETATM   12  C13 UNK   900      22.856  -7.479   4.810  1.00  0.00     0.011 C 
ENDROOT
BRANCH   2  13
HETATM   13  C11 UNK   900      22.115  -3.263   7.543  1.00  0.00     0.173 C 
BRANCH  13  14
HETATM   14  O2  UNK   900      20.944  -2.700   6.983  1.00  0.00    -0.400 OA
HETATM   15  H24 UNK   900      20.195  -2.998   7.525  1.00  0.00     0.209 HD
ENDBRANCH  13  14
ENDBRANCH   2  13
BRANCH   8  16
HETATM   16  C14 UNK   900      22.437  -3.539   2.024  1.00  0.00     0.199 C 
BRANCH  16  17
HETATM   17  O3  UNK   900      23.012  -2.262   1.851  1.00  0.00    -0.397 OA
HETATM   18  H25 UNK   900      23.936  -2.394   1.577  1.00  0.00     0.209 HD
ENDBRANCH  16  17
ENDBRANCH   8  16
BRANCH   9  19
HETATM   19  C15 UNK   900      25.764  -4.484   2.040  1.00  0.00     0.175 C 
BRANCH  19  20
HETATM   20  O4  UNK   900      26.352  -4.599   0.760  1.00  0.00    -0.400 OA
HETATM   21  H26 UNK   900      26.264  -3.736   0.324  1.00  0.00     0.209 HD
ENDBRANCH  19  20
ENDBRANCH   9  19
BRANCH  10  22
HETATM   22  O1  UNK   900      25.205  -7.262   1.178  1.00  0.00    -0.395 OA
HETATM   23  H23 UNK   900      25.206  -8.226   1.307  1.00  0.00     0.210 HD
ENDBRANCH  10  22
TORSDOF 7
ENDMDL
MODEL 9
REMARK VINA RESULT:      -4.2     29.438     31.061
REMARK  7 active torsions:
REMARK  status: ('A' for Active; 'I' for Inactive)
REMARK    1  A    between atoms: O1_1  and  C10_14 
REMARK    2  A    between atoms: O2_2  and  C11_15 
REMARK    3  A    between atoms: O3_3  and  C14_18 
REMARK    4  A    between atoms: O4_4  and  C15_19 
REMARK    5  A    between atoms: C2_6  and  C11_15 
REMARK    6  A    between atoms: C8_12  and  C14_18 
REMARK    7  A    between atoms: C9_13  and  C15_19 
ROOT
HETATM    1  C1  UNK   900      -8.678  -9.363   5.372  1.00  0.00     0.019 C 
HETATM    2  C2  UNK   900      -8.727  -8.478   7.648  1.00  0.00    -0.018 C 
HETATM    3  C3  UNK   900      -7.779  -9.043   6.584  1.00  0.00     0.021 C 
HETATM    4  C4  UNK   900     -10.043  -9.622   5.988  1.00  0.00    -0.070 C 
HETATM    5  C5  UNK   900      -8.093 -10.480   4.483  1.00  0.00    -0.008 C 
HETATM    6  C6  UNK   900      -9.963  -9.375   7.479  1.00  0.00     0.046 C 
HETATM    7  C7  UNK   900      -8.802 -10.563   3.122  1.00  0.00     0.037 C 
HETATM    8  C8  UNK   900     -11.174  -9.930   5.316  1.00  0.00    -0.045 C 
HETATM    9  C9  UNK   900     -11.272 -10.042   3.800  1.00  0.00     0.069 C 
HETATM   10  C10 UNK   900     -10.265 -11.011   3.148  1.00  0.00     0.128 C 
HETATM   11  C12 UNK   900      -9.060  -6.999   7.379  1.00  0.00     0.018 C 
HETATM   12  C13 UNK   900      -8.033 -11.859   5.156  1.00  0.00     0.011 C 
ENDROOT
BRANCH   2  13
HETATM   13  C11 UNK   900      -8.132  -8.606   9.053  1.00  0.00     0.173 C 
BRANCH  13  14
HETATM   14  O2  UNK   900      -7.018  -7.738   9.146  1.00  0.00    -0.400 OA
HETATM   15  H24 UNK   900      -6.734  -7.539   8.238  1.00  0.00     0.209 HD
ENDBRANCH  13  14
ENDBRANCH   2  13
BRANCH   8  16
HETATM   16  C14 UNK   900     -12.490 -10.171   6.019  1.00  0.00     0.199 C 
BRANCH  16  17
HETATM   17  O3  UNK   900     -13.383 -10.808   5.132  1.00  0.00    -0.397 OA
HETATM   18  H25 UNK   900     -13.530 -11.709   5.466  1.00  0.00     0.209 HD
ENDBRANCH  16  17
ENDBRANCH   8  16
BRANCH   9  19
HETATM   19  C15 UNK   900     -11.315  -8.654   3.141  1.00  0.00     0.175 C 
BRANCH  19  20
HETATM   20  O4  UNK   900     -12.187  -8.721   2.031  1.00  0.00    -0.400 OA
HETATM   21  H26 UNK   900     -12.767  -9.489   2.166  1.00  0.00     0.209 HD
ENDBRANCH  19  20
ENDBRANCH   9  19
BRANCH  10  22
HETATM   22  O1  UNK   900     -10.683 -11.214   1.791  1.00  0.00    -0.395 OA
HETATM   23  H23 UNK   900     -11.623 -10.973   1.732  1.00  0.00     0.210 HD
ENDBRANCH  10  22
TORSDOF 7
ENDMDL
