MODEL 1
REMARK VINA RESULT:      -4.5      0.000      0.000
REMARK  5 active torsions:
REMARK  status: ('A' for Active; 'I' for Inactive)
REMARK    1  A    between atoms: O2_2  and  C6_12 
REMARK    2  A    between atoms: N1_6  and  C5_11 
REMARK    3  A    between atoms: C1_7  and  C6_12 
REMARK    4  A    between atoms: C5_11  and  C7_13 
REMARK    5  A    between atoms: C7_13  and  C8_14 
ROOT
HETATM    1  O1  UNK   900      26.383  -4.870   3.766  1.00  0.00    -0.273 OA
HETATM    2  N1  UNK   900      24.233  -5.819   3.887  1.00  0.00    -0.330 N 
HETATM    3  C1  UNK   900      23.646  -7.131   3.732  1.00  0.00     0.185 C 
HETATM    4  C2  UNK   900      24.695  -7.893   2.941  1.00  0.00     0.045 C 
HETATM    5  C3  UNK   900      26.014  -7.224   3.324  1.00  0.00     0.105 C 
HETATM    6  C4  UNK   900      25.608  -5.811   3.670  1.00  0.00     0.221 C 
ENDROOT
BRANCH   2   7
HETATM    7  C5  UNK   900      23.441  -4.666   4.269  1.00  0.00     0.212 C 
BRANCH   7   8
HETATM    8  C7  UNK   900      22.393  -4.407   3.204  1.00  0.00     0.200 C 
HETATM    9  O5  UNK   900      21.239  -4.813   3.306  1.00  0.00    -0.288 OA
BRANCH   8  10
HETATM   10  C8  UNK   900      22.799  -3.671   1.975  1.00  0.00     0.122 A 
HETATM   11  O4  UNK   900      21.961  -3.708   0.906  1.00  0.00    -0.319 OA
HETATM   12  C11 UNK   900      22.547  -2.970  -0.073  1.00  0.00     0.142 A 
HETATM   13  C10 UNK   900      23.751  -2.462   0.359  1.00  0.00     0.027 A 
HETATM   14  C9  UNK   900      23.914  -2.918   1.690  1.00  0.00     0.043 A 
ENDBRANCH   8  10
ENDBRANCH   7   8
ENDBRANCH   2   7
BRANCH   3  15
HETATM   15  C6  UNK   900      23.440  -7.715   5.096  1.00  0.00     0.163 C 
HETATM   16  O3  UNK   900      22.950  -7.123   6.046  1.00  0.00    -0.648 OA
BRANCH  15  17
HETATM   17  O2  UNK   900      23.874  -8.998   5.138  1.00  0.00    -0.775 OA
HETATM   18  H8  UNK   900      23.358  -9.538   5.774  1.00  0.00     0.167 HD
ENDBRANCH  15  17
ENDBRANCH   3  15
TORSDOF 5
ENDMDL
MODEL 2
REMARK VINA RESULT:      -4.4      1.744      5.224
REMARK  5 active torsions:
REMARK  status: ('A' for Active; 'I' for Inactive)
REMARK    1  A    between atoms: O2_2  and  C6_12 
REMARK    2  A    between atoms: N1_6  and  C5_11 
REMARK    3  A    between atoms: C1_7  and  C6_12 
REMARK    4  A    between atoms: C5_11  and  C7_13 
REMARK    5  A    between atoms: C7_13  and  C8_14 
ROOT
HETATM    1  O1  UNK   900      25.631  -3.343   4.148  1.00  0.00    -0.273 OA
HETATM    2  N1  UNK   900      24.219  -4.359   2.562  1.00  0.00    -0.330 N 
HETATM    3  C1  UNK   900      22.930  -4.088   1.966  1.00  0.00     0.185 C 
HETATM    4  C2  UNK   900      22.287  -3.123   2.947  1.00  0.00     0.045 C 
HETATM    5  C3  UNK   900      23.468  -2.400   3.593  1.00  0.00     0.105 C 
HETATM    6  C4  UNK   900      24.590  -3.408   3.509  1.00  0.00     0.221 C 
ENDROOT
BRANCH   2   7
HETATM    7  C5  UNK   900      25.027  -5.493   2.157  1.00  0.00     0.212 C 
BRANCH   7   8
HETATM    8  C7  UNK   900      24.214  -6.763   2.310  1.00  0.00     0.200 C 
HETATM    9  O5  UNK   900      23.865  -7.440   1.346  1.00  0.00    -0.288 OA
BRANCH   8  10
HETATM   10  C8  UNK   900      23.792  -7.174   3.677  1.00  0.00     0.122 A 
HETATM   11  O4  UNK   900      24.692  -7.839   4.447  1.00  0.00    -0.319 OA
HETATM   12  C11 UNK   900      24.076  -8.098   5.630  1.00  0.00     0.142 A 
HETATM   13  C10 UNK   900      22.791  -7.605   5.624  1.00  0.00     0.027 A 
HETATM   14  C9  UNK   900      22.607  -7.006   4.354  1.00  0.00     0.043 A 
ENDBRANCH   8  10
ENDBRANCH   7   8
ENDBRANCH   2   7
BRANCH   3  15
HETATM   15  C6  UNK   900      23.158  -3.457   0.627  1.00  0.00     0.163 C 
HETATM   16  O3  UNK   900      23.987  -2.590   0.391  1.00  0.00    -0.648 OA
BRANCH  15  17
HETATM   17  O2  UNK   900      22.314  -3.977  -0.297  1.00  0.00    -0.775 OA
HETATM   18  H8  UNK   900      22.738  -4.691  -0.819  1.00  0.00     0.167 HD
ENDBRANCH  15  17
ENDBRANCH   3  15
TORSDOF 5
ENDMDL
MODEL 3
REMARK VINA RESULT:      -4.3     32.400     33.847
REMARK  5 active torsions:
REMARK  status: ('A' for Active; 'I' for Inactive)
REMARK    1  A    between atoms: O2_2  and  C6_12 
REMARK    2  A    between atoms: N1_6  and  C5_11 
REMARK    3  A    between atoms: C1_7  and  C6_12 
REMARK    4  A    between atoms: C5_11  and  C7_13 
REMARK    5  A    between atoms: C7_13  and  C8_14 
ROOT
HETATM    1  O1  UNK   900      -9.562 -11.403   9.603  1.00  0.00    -0.273 OA
HETATM    2  N1  UNK   900      -9.341  -9.222   8.746  1.00  0.00    -0.330 N 
HETATM    3  C1  UNK   900      -8.472  -8.086   8.957  1.00  0.00     0.185 C 
HETATM    4  C2  UNK   900      -7.865  -8.357  10.322  1.00  0.00     0.045 C 
HETATM    5  C3  UNK   900      -7.872  -9.881  10.441  1.00  0.00     0.105 C 
HETATM    6  C4  UNK   900      -9.037 -10.300   9.574  1.00  0.00     0.221 C 
ENDROOT
BRANCH   2   7
HETATM    7  C5  UNK   900     -10.384  -9.213   7.739  1.00  0.00     0.212 C 
BRANCH   7   8
HETATM    8  C7  UNK   900     -11.144  -7.904   7.821  1.00  0.00     0.200 C 
HETATM    9  O5  UNK   900     -11.805  -7.588   8.807  1.00  0.00    -0.288 OA
BRANCH   8  10
HETATM   10  C8  UNK   900     -11.117  -6.994   6.643  1.00  0.00     0.122 A 
HETATM   11  O4  UNK   900     -12.280  -6.789   5.971  1.00  0.00    -0.319 OA
HETATM   12  C11 UNK   900     -11.997  -5.933   4.954  1.00  0.00     0.142 A 
HETATM   13  C10 UNK   900     -10.665  -5.590   4.969  1.00  0.00     0.027 A 
HETATM   14  C9  UNK   900     -10.093  -6.280   6.065  1.00  0.00     0.043 A 
ENDBRANCH   8  10
ENDBRANCH   7   8
ENDBRANCH   2   7
BRANCH   3  15
HETATM   15  C6  UNK   900      -7.436  -8.083   7.874  1.00  0.00     0.163 C 
HETATM   16  O3  UNK   900      -7.420  -8.843   6.917  1.00  0.00    -0.648 OA
BRANCH  15  17
HETATM   17  O2  UNK   900      -6.510  -7.120   8.100  1.00  0.00    -0.775 OA
HETATM   18  H8  UNK   900      -6.415  -6.517   7.332  1.00  0.00     0.167 HD
ENDBRANCH  15  17
ENDBRANCH   3  15
TORSDOF 5
ENDMDL
MODEL 4
REMARK VINA RESULT:      -4.3      2.312      2.883
REMARK  5 active torsions:
REMARK  status: ('A' for Active; 'I' for Inactive)
REMARK    1  A    between atoms: O2_2  and  C6_12 
REMARK    2  A    between atoms: N1_6  and  C5_11 
REMARK    3  A    between atoms: C1_7  and  C6_12 
REMARK    4  A    between atoms: C5_11  and  C7_13 
REMARK    5  A    between atoms: C7_13  and  C8_14 
ROOT
HETATM    1  O1  UNK   900      24.773  -4.879   5.347  1.00  0.00    -0.273 OA
HETATM    2  N1  UNK   900      25.290  -5.707   3.204  1.00  0.00    -0.330 N 
HETATM    3  C1  UNK   900      25.612  -6.987   2.615  1.00  0.00     0.185 C 
HETATM    4  C2  UNK   900      26.062  -7.816   3.804  1.00  0.00     0.045 C 
HETATM    5  C3  UNK   900      25.309  -7.215   4.990  1.00  0.00     0.105 C 
HETATM    6  C4  UNK   900      25.094  -5.777   4.581  1.00  0.00     0.221 C 
ENDROOT
BRANCH   2   7
HETATM    7  C5  UNK   900      25.154  -4.506   2.403  1.00  0.00     0.212 C 
BRANCH   7   8
HETATM    8  C7  UNK   900      23.711  -4.042   2.442  1.00  0.00     0.200 C 
HETATM    9  O5  UNK   900      22.811  -4.645   1.862  1.00  0.00    -0.288 OA
BRANCH   8  10
HETATM   10  C8  UNK   900      23.389  -2.787   3.175  1.00  0.00     0.122 A 
HETATM   11  O4  UNK   900      24.087  -1.667   2.854  1.00  0.00    -0.319 OA
HETATM   12  C11 UNK   900      23.613  -0.672   3.650  1.00  0.00     0.142 A 
HETATM   13  C10 UNK   900      22.620  -1.146   4.476  1.00  0.00     0.027 A 
HETATM   14  C9  UNK   900      22.475  -2.520   4.168  1.00  0.00     0.043 A 
ENDBRANCH   8  10
ENDBRANCH   7   8
ENDBRANCH   2   7
BRANCH   3  15
HETATM   15  C6  UNK   900      24.369  -7.538   1.986  1.00  0.00     0.163 C 
HETATM   16  O3  UNK   900      23.337  -7.801   2.585  1.00  0.00    -0.648 OA
BRANCH  15  17
HETATM   17  O2  UNK   900      24.543  -7.709   0.653  1.00  0.00    -0.775 OA
HETATM   18  H8  UNK   900      24.658  -8.654   0.417  1.00  0.00     0.167 HD
ENDBRANCH  15  17
ENDBRANCH   3  15
TORSDOF 5
ENDMDL
MODEL 5
REMARK VINA RESULT:      -4.2      2.455      5.069
REMARK  5 active torsions:
REMARK  status: ('A' for Active; 'I' for Inactive)
REMARK    1  A    between atoms: O2_2  and  C6_12 
REMARK    2  A    between atoms: N1_6  and  C5_11 
REMARK    3  A    between atoms: C1_7  and  C6_12 
REMARK    4  A    between atoms: C5_11  and  C7_13 
REMARK    5  A    between atoms: C7_13  and  C8_14 
ROOT
HETATM    1  O1  UNK   900      23.613  -4.641   4.294  1.00  0.00    -0.273 OA
HETATM    2  N1  UNK   900      24.466  -6.812   4.614  1.00  0.00    -0.330 N 
HETATM    3  C1  UNK   900      24.933  -7.898   3.781  1.00  0.00     0.185 C 
HETATM    4  C2  UNK   900      24.324  -7.587   2.426  1.00  0.00     0.045 C 
HETATM    5  C3  UNK   900      24.182  -6.065   2.417  1.00  0.00     0.105 C 
HETATM    6  C4  UNK   900      24.024  -5.715   3.878  1.00  0.00     0.221 C 
ENDROOT
BRANCH   2   7
HETATM    7  C5  UNK   900      24.508  -6.883   6.061  1.00  0.00     0.212 C 
BRANCH   7   8
HETATM    8  C7  UNK   900      23.359  -7.742   6.551  1.00  0.00     0.200 C 
HETATM    9  O5  UNK   900      23.404  -8.969   6.538  1.00  0.00    -0.288 OA
BRANCH   8  10
HETATM   10  C8  UNK   900      22.119  -7.065   7.022  1.00  0.00     0.122 A 
HETATM   11  O4  UNK   900      21.576  -7.478   8.196  1.00  0.00    -0.319 OA
HETATM   12  C11 UNK   900      20.470  -6.716   8.403  1.00  0.00     0.142 A 
HETATM   13  C10 UNK   900      20.301  -5.820   7.373  1.00  0.00     0.027 A 
HETATM   14  C9  UNK   900      21.372  -6.047   6.475  1.00  0.00     0.043 A 
ENDBRANCH   8  10
ENDBRANCH   7   8
ENDBRANCH   2   7
BRANCH   3  15
HETATM   15  C6  UNK   900      26.430  -7.850   3.747  1.00  0.00     0.163 C 
HETATM   16  O3  UNK   900      27.103  -6.840   3.886  1.00  0.00    -0.648 OA
BRANCH  15  17
HETATM   17  O2  UNK   900      26.943  -9.087   3.539  1.00  0.00    -0.775 OA
HETATM   18  H8  UNK   900      26.555  -9.751   4.148  1.00  0.00     0.167 HD
ENDBRANCH  15  17
ENDBRANCH   3  15
TORSDOF 5
ENDMDL
MODEL 6
REMARK VINA RESULT:      -4.2      2.063      3.433
REMARK  5 active torsions:
REMARK  status: ('A' for Active; 'I' for Inactive)
REMARK    1  A    between atoms: O2_2  and  C6_12 
REMARK    2  A    between atoms: N1_6  and  C5_11 
REMARK    3  A    between atoms: C1_7  and  C6_12 
REMARK    4  A    between atoms: C5_11  and  C7_13 
REMARK    5  A    between atoms: C7_13  and  C8_14 
ROOT
HETATM    1  O1  UNK   900      25.514  -5.548   5.977  1.00  0.00    -0.273 OA
HETATM    2  N1  UNK   900      25.366  -5.848   3.647  1.00  0.00    -0.330 N 
HETATM    3  C1  UNK   900      25.590  -6.920   2.703  1.00  0.00     0.185 C 
HETATM    4  C2  UNK   900      26.481  -7.881   3.469  1.00  0.00     0.045 C 
HETATM    5  C3  UNK   900      26.110  -7.652   4.934  1.00  0.00     0.105 C 
HETATM    6  C4  UNK   900      25.643  -6.216   4.961  1.00  0.00     0.221 C 
ENDROOT
BRANCH   2   7
HETATM    7  C5  UNK   900      24.866  -4.552   3.232  1.00  0.00     0.212 C 
BRANCH   7   8
HETATM    8  C7  UNK   900      23.350  -4.584   3.223  1.00  0.00     0.200 C 
HETATM    9  O5  UNK   900      22.698  -4.568   2.182  1.00  0.00    -0.288 OA
BRANCH   8  10
HETATM   10  C8  UNK   900      22.635  -4.589   4.529  1.00  0.00     0.122 A 
HETATM   11  O4  UNK   900      21.958  -5.714   4.878  1.00  0.00    -0.319 OA
HETATM   12  C11 UNK   900      21.400  -5.471   6.093  1.00  0.00     0.142 A 
HETATM   13  C10 UNK   900      21.714  -4.203   6.524  1.00  0.00     0.027 A 
HETATM   14  C9  UNK   900      22.515  -3.629   5.507  1.00  0.00     0.043 A 
ENDBRANCH   8  10
ENDBRANCH   7   8
ENDBRANCH   2   7
BRANCH   3  15
HETATM   15  C6  UNK   900      24.265  -7.531   2.367  1.00  0.00     0.163 C 
HETATM   16  O3  UNK   900      23.555  -8.142   3.151  1.00  0.00    -0.648 OA
BRANCH  15  17
HETATM   17  O2  UNK   900      23.955  -7.316   1.065  1.00  0.00    -0.775 OA
HETATM   18  H8  UNK   900      23.186  -7.853   0.778  1.00  0.00     0.167 HD
ENDBRANCH  15  17
ENDBRANCH   3  15
TORSDOF 5
ENDMDL
MODEL 7
REMARK VINA RESULT:      -4.1     35.880     38.412
REMARK  5 active torsions:
REMARK  status: ('A' for Active; 'I' for Inactive)
REMARK    1  A    between atoms: O2_2  and  C6_12 
REMARK    2  A    between atoms: N1_6  and  C5_11 
REMARK    3  A    between atoms: C1_7  and  C6_12 
REMARK    4  A    between atoms: C5_11  and  C7_13 
REMARK    5  A    between atoms: C7_13  and  C8_14 
ROOT
HETATM    1  O1  UNK   900      -9.721  13.653  -7.402  1.00  0.00    -0.273 OA
HETATM    2  N1  UNK   900      -9.010  12.351  -5.575  1.00  0.00    -0.330 N 
HETATM    3  C1  UNK   900      -8.178  11.187  -5.366  1.00  0.00     0.185 C 
HETATM    4  C2  UNK   900      -8.134  10.537  -6.738  1.00  0.00     0.045 C 
HETATM    5  C3  UNK   900      -8.321  11.700  -7.712  1.00  0.00     0.105 C 
HETATM    6  C4  UNK   900      -9.124  12.703  -6.918  1.00  0.00     0.221 C 
ENDROOT
BRANCH   2   7
HETATM    7  C5  UNK   900      -9.611  13.072  -4.470  1.00  0.00     0.212 C 
BRANCH   7   8
HETATM    8  C7  UNK   900     -10.750  12.248  -3.900  1.00  0.00     0.200 C 
HETATM    9  O5  UNK   900     -11.495  11.577  -4.609  1.00  0.00    -0.288 OA
BRANCH   8  10
HETATM   10  C8  UNK   900     -10.992  12.297  -2.432  1.00  0.00     0.122 A 
HETATM   11  O4  UNK   900     -10.044  12.874  -1.649  1.00  0.00    -0.319 OA
HETATM   12  C11 UNK   900     -10.495  12.795  -0.369  1.00  0.00     0.142 A 
HETATM   13  C10 UNK   900     -11.722  12.173  -0.327  1.00  0.00     0.027 A 
HETATM   14  C9  UNK   900     -12.044  11.849  -1.667  1.00  0.00     0.043 A 
ENDBRANCH   8  10
ENDBRANCH   7   8
ENDBRANCH   2   7
BRANCH   3  15
HETATM   15  C6  UNK   900      -6.825  11.654  -4.924  1.00  0.00     0.163 C 
HETATM   16  O3  UNK   900      -6.175  12.535  -5.466  1.00  0.00    -0.648 OA
BRANCH  15  17
HETATM   17  O2  UNK   900      -6.412  10.961  -3.835  1.00  0.00    -0.775 OA
HETATM   18  H8  UNK   900      -5.451  11.075  -3.671  1.00  0.00     0.167 HD
ENDBRANCH  15  17
ENDBRANCH   3  15
TORSDOF 5
ENDMDL
MODEL 8
REMARK VINA RESULT:      -4.1     34.386     36.138
REMARK  5 active torsions:
REMARK  status: ('A' for Active; 'I' for Inactive)
REMARK    1  A    between atoms: O2_2  and  C6_12 
REMARK    2  A    between atoms: N1_6  and  C5_11 
REMARK    3  A    between atoms: C1_7  and  C6_12 
REMARK    4  A    between atoms: C5_11  and  C7_13 
REMARK    5  A    between atoms: C7_13  and  C8_14 
ROOT
HETATM    1  O1  UNK   900      -6.430  14.913   7.655  1.00  0.00    -0.273 OA
HETATM    2  N1  UNK   900      -6.057  12.681   8.306  1.00  0.00    -0.330 N 
HETATM    3  C1  UNK   900      -4.918  11.814   8.503  1.00  0.00     0.185 C 
HETATM    4  C2  UNK   900      -3.817  12.496   7.710  1.00  0.00     0.045 C 
HETATM    5  C3  UNK   900      -4.196  13.976   7.736  1.00  0.00     0.105 C 
HETATM    6  C4  UNK   900      -5.701  13.955   7.869  1.00  0.00     0.221 C 
ENDROOT
BRANCH   2   7
HETATM    7  C5  UNK   900      -7.411  12.245   8.585  1.00  0.00     0.212 C 
BRANCH   7   8
HETATM    8  C7  UNK   900      -8.098  11.889   7.281  1.00  0.00     0.200 C 
HETATM    9  O5  UNK   900      -7.474  11.539   6.283  1.00  0.00    -0.288 OA
BRANCH   8  10
HETATM   10  C8  UNK   900      -9.580  12.014   7.204  1.00  0.00     0.122 A 
HETATM   11  O4  UNK   900     -10.170  13.021   7.899  1.00  0.00    -0.319 OA
HETATM   12  C11 UNK   900     -11.506  12.922   7.668  1.00  0.00     0.142 A 
HETATM   13  C10 UNK   900     -11.775  11.863   6.833  1.00  0.00     0.027 A 
HETATM   14  C9  UNK   900     -10.523  11.272   6.532  1.00  0.00     0.043 A 
ENDBRANCH   8  10
ENDBRANCH   7   8
ENDBRANCH   2   7
BRANCH   3  15
HETATM   15  C6  UNK   900      -4.610  11.772   9.968  1.00  0.00     0.163 C 
HETATM   16  O3  UNK   900      -4.236  12.726  10.634  1.00  0.00    -0.648 OA
BRANCH  15  17
HETATM   17  O2  UNK   900      -4.800  10.524  10.461  1.00  0.00    -0.775 OA
HETATM   18  H8  UNK   900      -5.533  10.058  10.005  1.00  0.00     0.167 HD
ENDBRANCH  15  17
ENDBRANCH   3  15
TORSDOF 5
ENDMDL
MODEL 9
REMARK VINA RESULT:      -4.1     31.962     33.445
REMARK  5 active torsions:
REMARK  status: ('A' for Active; 'I' for Inactive)
REMARK    1  A    between atoms: O2_2  and  C6_12 
REMARK    2  A    between atoms: N1_6  and  C5_11 
REMARK    3  A    between atoms: C1_7  and  C6_12 
REMARK    4  A    between atoms: C5_11  and  C7_13 
REMARK    5  A    between atoms: C7_13  and  C8_14 
ROOT
HETATM    1  O1  UNK   900      -9.590 -11.670   6.488  1.00  0.00    -0.273 OA
HETATM    2  N1  UNK   900      -9.226  -9.490   5.676  1.00  0.00    -0.330 N 
HETATM    3  C1  UNK   900      -8.909  -8.874   4.407  1.00  0.00     0.185 C 
HETATM    4  C2  UNK   900      -8.331 -10.020   3.596  1.00  0.00     0.045 C 
HETATM    5  C3  UNK   900      -9.004 -11.266   4.171  1.00  0.00     0.105 C 
HETATM    6  C4  UNK   900      -9.303 -10.879   5.601  1.00  0.00     0.221 C 
ENDROOT
BRANCH   2   7
HETATM    7  C5  UNK   900      -9.471  -8.705   6.870  1.00  0.00     0.212 C 
BRANCH   7   8
HETATM    8  C7  UNK   900      -8.177  -8.566   7.647  1.00  0.00     0.200 C 
HETATM    9  O5  UNK   900      -7.075  -8.675   7.115  1.00  0.00    -0.288 OA
BRANCH   8  10
HETATM   10  C8  UNK   900      -8.254  -8.332   9.115  1.00  0.00     0.122 A 
HETATM   11  O4  UNK   900      -9.417  -7.844   9.621  1.00  0.00    -0.319 OA
HETATM   12  C11 UNK   900      -9.237  -7.722  10.963  1.00  0.00     0.142 A 
HETATM   13  C10 UNK   900      -7.971  -8.126  11.319  1.00  0.00     0.027 A 
HETATM   14  C9  UNK   900      -7.332  -8.522  10.119  1.00  0.00     0.043 A 
ENDBRANCH   8  10
ENDBRANCH   7   8
ENDBRANCH   2   7
BRANCH   3  15
HETATM   15  C6  UNK   900     -10.180  -8.351   3.811  1.00  0.00     0.163 C 
HETATM   16  O3  UNK   900     -11.180  -9.019   3.592  1.00  0.00    -0.648 OA
BRANCH  15  17
HETATM   17  O2  UNK   900     -10.073  -7.027   3.543  1.00  0.00    -0.775 OA
HETATM   18  H8  UNK   900      -9.182  -6.679   3.764  1.00  0.00     0.167 HD
ENDBRANCH  15  17
ENDBRANCH   3  15
TORSDOF 5
ENDMDL
