MODEL 1
REMARK VINA RESULT:      -6.4      0.000      0.000
REMARK  9 active torsions:
REMARK  status: ('A' for Active; 'I' for Inactive)
REMARK    1  A    between atoms: O1_1  and  C3_9 
REMARK    2  A    between atoms: O2_2  and  C9_15 
REMARK    3  A    between atoms: O3_3  and  C20_26 
REMARK    4  A    between atoms: C1_7  and  C2_8 
REMARK    5  A    between atoms: C1_7  and  C3_9 
REMARK    6  A    between atoms: C1_7  and  C4_10 
REMARK    7  A    between atoms: C3_9  and  C9_15 
REMARK    8  A    between atoms: C5_11  and  C11_17 
REMARK    9  A    between atoms: C11_17  and  C20_26 
ROOT
HETATM    1  C1  UNK   900      13.403  -4.727  -6.018  1.00  0.00     0.102 C 
ENDROOT
BRANCH   1   2
HETATM    2  C2  UNK   900      13.516  -3.465  -5.129  1.00  0.00     0.028 A 
HETATM    3  N1  UNK   900      13.130  -2.237  -5.595  1.00  0.00    -0.358 N 
HETATM    4  C8  UNK   900      13.326  -1.278  -4.627  1.00  0.00     0.043 A 
HETATM    5  H3  UNK   900      12.743  -2.053  -6.511  1.00  0.00     0.166 HD
HETATM    6  C6  UNK   900      13.855  -1.926  -3.509  1.00  0.00    -0.001 A 
HETATM    7  C15 UNK   900      13.078   0.098  -4.655  1.00  0.00     0.030 A 
HETATM    8  C5  UNK   900      13.969  -3.305  -3.840  1.00  0.00    -0.012 A 
HETATM    9  C13 UNK   900      14.152  -1.164  -2.361  1.00  0.00     0.014 A 
HETATM   10  C17 UNK   900      13.909   0.215  -2.375  1.00  0.00     0.001 A 
HETATM   11  C18 UNK   900      13.380   0.835  -3.506  1.00  0.00     0.002 A 
BRANCH   8  12
HETATM   12  C11 UNK   900      14.483  -4.375  -2.960  1.00  0.00     0.151 C 
BRANCH  12  13
HETATM   13  C20 UNK   900      13.394  -5.156  -2.238  1.00  0.00     0.143 C 
HETATM   14  O4  UNK   900      12.217  -4.827  -2.192  1.00  0.00    -0.650 OA
BRANCH  13  15
HETATM   15  O3  UNK   900      13.875  -6.277  -1.636  1.00  0.00    -0.776 OA
HETATM   16  H22 UNK   900      14.563  -6.716  -2.180  1.00  0.00     0.167 HD
ENDBRANCH  13  15
ENDBRANCH  12  13
ENDBRANCH   8  12
ENDBRANCH   1   2
BRANCH   1  17
HETATM   17  C3  UNK   900      14.663  -4.826  -6.956  1.00  0.00     0.158 C 
BRANCH  17  18
HETATM   18  O1  UNK   900      14.636  -6.074  -7.660  1.00  0.00    -0.388 OA
HETATM   19  C21 UNK   900      15.097  -5.919  -8.991  1.00  0.00     0.202 C 
ENDBRANCH  17  18
BRANCH  17  20
HETATM   20  C9  UNK   900      15.994  -4.755  -6.196  1.00  0.00     0.197 C 
BRANCH  20  21
HETATM   21  O2  UNK   900      16.278  -6.000  -5.570  1.00  0.00    -0.398 OA
HETATM   22  H21 UNK   900      15.780  -6.682  -6.051  1.00  0.00     0.209 HD
ENDBRANCH  20  21
ENDBRANCH  17  20
ENDBRANCH   1  17
BRANCH   1  23
HETATM   23  C4  UNK   900      12.088  -4.835  -6.682  1.00  0.00    -0.018 A 
HETATM   24  C7  UNK   900      10.902  -5.396  -6.129  1.00  0.00    -0.001 A 
HETATM   25  C12 UNK   900       9.906  -5.290  -7.103  1.00  0.00     0.042 A 
HETATM   26  C14 UNK   900      10.581  -5.984  -4.891  1.00  0.00     0.014 A 
HETATM   27  N2  UNK   900      10.476  -4.688  -8.201  1.00  0.00    -0.365 N 
HETATM   28  C16 UNK   900       8.600  -5.746  -6.898  1.00  0.00     0.030 A 
HETATM   29  C10 UNK   900      11.794  -4.409  -7.957  1.00  0.00     0.097 A 
HETATM   30  H9  UNK   900       9.991  -4.480  -9.063  1.00  0.00     0.165 HD
HETATM   31  C22 UNK   900       8.303  -6.326  -5.661  1.00  0.00     0.002 A 
HETATM   32  C19 UNK   900       9.276  -6.444  -4.672  1.00  0.00     0.001 A 
ENDBRANCH   1  23
TORSDOF 9
ENDMDL
MODEL 2
REMARK VINA RESULT:      -5.7      1.761      2.468
REMARK  9 active torsions:
REMARK  status: ('A' for Active; 'I' for Inactive)
REMARK    1  A    between atoms: O1_1  and  C3_9 
REMARK    2  A    between atoms: O2_2  and  C9_15 
REMARK    3  A    between atoms: O3_3  and  C20_26 
REMARK    4  A    between atoms: C1_7  and  C2_8 
REMARK    5  A    between atoms: C1_7  and  C3_9 
REMARK    6  A    between atoms: C1_7  and  C4_10 
REMARK    7  A    between atoms: C3_9  and  C9_15 
REMARK    8  A    between atoms: C5_11  and  C11_17 
REMARK    9  A    between atoms: C11_17  and  C20_26 
ROOT
HETATM    1  C1  UNK   900      12.307  -5.058  -6.388  1.00  0.00     0.102 C 
ENDROOT
BRANCH   1   2
HETATM    2  C2  UNK   900      12.782  -4.332  -5.106  1.00  0.00     0.028 A 
HETATM    3  N1  UNK   900      13.115  -3.004  -5.130  1.00  0.00    -0.358 N 
HETATM    4  C8  UNK   900      13.505  -2.590  -3.876  1.00  0.00     0.043 A 
HETATM    5  H3  UNK   900      13.070  -2.404  -5.941  1.00  0.00     0.166 HD
HETATM    6  C6  UNK   900      13.415  -3.698  -3.031  1.00  0.00    -0.001 A 
HETATM    7  C15 UNK   900      13.927  -1.333  -3.431  1.00  0.00     0.030 A 
HETATM    8  C5  UNK   900      12.958  -4.790  -3.820  1.00  0.00    -0.012 A 
HETATM    9  C13 UNK   900      13.762  -3.545  -1.674  1.00  0.00     0.014 A 
HETATM   10  C17 UNK   900      14.185  -2.292  -1.214  1.00  0.00     0.001 A 
HETATM   11  C18 UNK   900      14.266  -1.204  -2.081  1.00  0.00     0.002 A 
BRANCH   8  12
HETATM   12  C11 UNK   900      12.714  -6.168  -3.347  1.00  0.00     0.151 C 
BRANCH  12  13
HETATM   13  C20 UNK   900      13.984  -6.971  -3.106  1.00  0.00     0.143 C 
HETATM   14  O4  UNK   900      15.050  -6.774  -3.672  1.00  0.00    -0.650 OA
BRANCH  13  15
HETATM   15  O3  UNK   900      13.807  -7.951  -2.180  1.00  0.00    -0.776 OA
HETATM   16  H22 UNK   900      13.795  -8.842  -2.590  1.00  0.00     0.167 HD
ENDBRANCH  13  15
ENDBRANCH  12  13
ENDBRANCH   8  12
ENDBRANCH   1   2
BRANCH   1  17
HETATM   17  C3  UNK   900      13.455  -5.033  -7.465  1.00  0.00     0.158 C 
BRANCH  17  18
HETATM   18  O1  UNK   900      14.683  -4.631  -6.843  1.00  0.00    -0.388 OA
HETATM   19  C21 UNK   900      15.712  -5.573  -7.092  1.00  0.00     0.202 C 
ENDBRANCH  17  18
BRANCH  17  20
HETATM   20  C9  UNK   900      13.184  -4.061  -8.621  1.00  0.00     0.197 C 
BRANCH  20  21
HETATM   21  O2  UNK   900      13.533  -2.733  -8.247  1.00  0.00    -0.398 OA
HETATM   22  H21 UNK   900      14.327  -2.494  -8.753  1.00  0.00     0.209 HD
ENDBRANCH  20  21
ENDBRANCH  17  20
ENDBRANCH   1  17
BRANCH   1  23
HETATM   23  C4  UNK   900      10.980  -4.595  -6.842  1.00  0.00    -0.018 A 
HETATM   24  C7  UNK   900      10.004  -5.366  -7.533  1.00  0.00    -0.001 A 
HETATM   25  C12 UNK   900       8.909  -4.530  -7.764  1.00  0.00     0.042 A 
HETATM   26  C14 UNK   900       9.947  -6.698  -7.986  1.00  0.00     0.014 A 
HETATM   27  N2  UNK   900       9.219  -3.300  -7.230  1.00  0.00    -0.365 N 
HETATM   28  C16 UNK   900       7.756  -4.963  -8.427  1.00  0.00     0.030 A 
HETATM   29  C10 UNK   900      10.469  -3.329  -6.671  1.00  0.00     0.097 A 
HETATM   30  H9  UNK   900       8.611  -2.492  -7.248  1.00  0.00     0.165 HD
HETATM   31  C22 UNK   900       7.722  -6.289  -8.867  1.00  0.00     0.002 A 
HETATM   32  C19 UNK   900       8.799  -7.146  -8.651  1.00  0.00     0.001 A 
ENDBRANCH   1  23
TORSDOF 9
ENDMDL
MODEL 3
REMARK VINA RESULT:      -5.4     25.794     27.739
REMARK  9 active torsions:
REMARK  status: ('A' for Active; 'I' for Inactive)
REMARK    1  A    between atoms: O1_1  and  C3_9 
REMARK    2  A    between atoms: O2_2  and  C9_15 
REMARK    3  A    between atoms: O3_3  and  C20_26 
REMARK    4  A    between atoms: C1_7  and  C2_8 
REMARK    5  A    between atoms: C1_7  and  C3_9 
REMARK    6  A    between atoms: C1_7  and  C4_10 
REMARK    7  A    between atoms: C3_9  and  C9_15 
REMARK    8  A    between atoms: C5_11  and  C11_17 
REMARK    9  A    between atoms: C11_17  and  C20_26 
ROOT
HETATM    1  C1  UNK   900      -9.591  12.988  -6.261  1.00  0.00     0.102 C 
ENDROOT
BRANCH   1   2
HETATM    2  C2  UNK   900      -9.849  12.795  -4.748  1.00  0.00     0.028 A 
HETATM    3  N1  UNK   900     -11.086  12.440  -4.283  1.00  0.00    -0.358 N 
HETATM    4  C8  UNK   900     -11.065  12.331  -2.911  1.00  0.00     0.043 A 
HETATM    5  H3  UNK   900     -11.900  12.266  -4.857  1.00  0.00     0.166 HD
HETATM    6  C6  UNK   900      -9.766  12.629  -2.495  1.00  0.00    -0.001 A 
HETATM    7  C15 UNK   900     -12.086  11.995  -2.015  1.00  0.00     0.030 A 
HETATM    8  C5  UNK   900      -9.010  12.921  -3.664  1.00  0.00    -0.012 A 
HETATM    9  C13 UNK   900      -9.469  12.591  -1.118  1.00  0.00     0.014 A 
HETATM   10  C17 UNK   900     -10.481  12.256  -0.211  1.00  0.00     0.001 A 
HETATM   11  C18 UNK   900     -11.769  11.963  -0.654  1.00  0.00     0.002 A 
BRANCH   8  12
HETATM   12  C11 UNK   900      -7.580  13.291  -3.711  1.00  0.00     0.151 C 
BRANCH  12  13
HETATM   13  C20 UNK   900      -6.644  12.115  -3.945  1.00  0.00     0.143 C 
HETATM   14  O4  UNK   900      -6.467  11.198  -3.154  1.00  0.00    -0.650 OA
BRANCH  13  15
HETATM   15  O3  UNK   900      -6.012  12.189  -5.147  1.00  0.00    -0.776 OA
HETATM   16  H22 UNK   900      -6.322  11.494  -5.765  1.00  0.00     0.167 HD
ENDBRANCH  13  15
ENDBRANCH  12  13
ENDBRANCH   8  12
ENDBRANCH   1   2
BRANCH   1  17
HETATM   17  C3  UNK   900     -10.921  13.446  -6.969  1.00  0.00     0.158 C 
BRANCH  17  18
HETATM   18  O1  UNK   900     -11.312  12.459  -7.931  1.00  0.00    -0.388 OA
HETATM   19  C21 UNK   900     -11.575  13.051  -9.191  1.00  0.00     0.202 C 
ENDBRANCH  17  18
BRANCH  17  20
HETATM   20  C9  UNK   900     -10.786  14.783  -7.710  1.00  0.00     0.197 C 
BRANCH  20  21
HETATM   21  O2  UNK   900      -9.569  15.430  -7.354  1.00  0.00    -0.398 OA
HETATM   22  H21 UNK   900      -8.887  14.741  -7.293  1.00  0.00     0.209 HD
ENDBRANCH  20  21
ENDBRANCH  17  20
ENDBRANCH   1  17
BRANCH   1  23
HETATM   23  C4  UNK   900      -8.896  11.836  -6.869  1.00  0.00    -0.018 A 
HETATM   24  C7  UNK   900      -8.042  11.865  -8.007  1.00  0.00    -0.001 A 
HETATM   25  C12 UNK   900      -7.608  10.555  -8.228  1.00  0.00     0.042 A 
HETATM   26  C14 UNK   900      -7.596  12.881  -8.873  1.00  0.00     0.014 A 
HETATM   27  N2  UNK   900      -8.182   9.769  -7.255  1.00  0.00    -0.365 N 
HETATM   28  C16 UNK   900      -6.747  10.212  -9.275  1.00  0.00     0.030 A 
HETATM   29  C10 UNK   900      -8.963  10.533  -6.429  1.00  0.00     0.097 A 
HETATM   30  H9  UNK   900      -8.047   8.772  -7.163  1.00  0.00     0.165 HD
HETATM   31  C22 UNK   900      -6.317  11.238 -10.122  1.00  0.00     0.002 A 
HETATM   32  C19 UNK   900      -6.733  12.553  -9.926  1.00  0.00     0.001 A 
ENDBRANCH   1  23
TORSDOF 9
ENDMDL
MODEL 4
REMARK VINA RESULT:      -5.3      3.036      5.343
REMARK  9 active torsions:
REMARK  status: ('A' for Active; 'I' for Inactive)
REMARK    1  A    between atoms: O1_1  and  C3_9 
REMARK    2  A    between atoms: O2_2  and  C9_15 
REMARK    3  A    between atoms: O3_3  and  C20_26 
REMARK    4  A    between atoms: C1_7  and  C2_8 
REMARK    5  A    between atoms: C1_7  and  C3_9 
REMARK    6  A    between atoms: C1_7  and  C4_10 
REMARK    7  A    between atoms: C3_9  and  C9_15 
REMARK    8  A    between atoms: C5_11  and  C11_17 
REMARK    9  A    between atoms: C11_17  and  C20_26 
ROOT
HETATM    1  C1  UNK   900      13.243  -4.944  -5.194  1.00  0.00     0.102 C 
ENDROOT
BRANCH   1   2
HETATM    2  C2  UNK   900      14.227  -6.023  -4.681  1.00  0.00     0.028 A 
HETATM    3  N1  UNK   900      14.923  -5.846  -3.516  1.00  0.00    -0.358 N 
HETATM    4  C8  UNK   900      15.729  -6.935  -3.273  1.00  0.00     0.043 A 
HETATM    5  H3  UNK   900      14.852  -5.042  -2.908  1.00  0.00     0.166 HD
HETATM    6  C6  UNK   900      15.533  -7.833  -4.325  1.00  0.00    -0.001 A 
HETATM    7  C15 UNK   900      16.606  -7.192  -2.215  1.00  0.00     0.030 A 
HETATM    8  C5  UNK   900      14.583  -7.245  -5.205  1.00  0.00    -0.012 A 
HETATM    9  C13 UNK   900      16.247  -9.047  -4.321  1.00  0.00     0.014 A 
HETATM   10  C17 UNK   900      17.129  -9.318  -3.268  1.00  0.00     0.001 A 
HETATM   11  C18 UNK   900      17.305  -8.403  -2.232  1.00  0.00     0.002 A 
BRANCH   8  12
HETATM   12  C11 UNK   900      14.069  -7.836  -6.459  1.00  0.00     0.151 C 
BRANCH  12  13
HETATM   13  C20 UNK   900      13.002  -8.899  -6.248  1.00  0.00     0.143 C 
HETATM   14  O4  UNK   900      13.226 -10.051  -5.900  1.00  0.00    -0.650 OA
BRANCH  13  15
HETATM   15  O3  UNK   900      11.749  -8.429  -6.491  1.00  0.00    -0.776 OA
HETATM   16  H22 UNK   900      11.196  -8.430  -5.682  1.00  0.00     0.167 HD
ENDBRANCH  13  15
ENDBRANCH  12  13
ENDBRANCH   8  12
ENDBRANCH   1   2
BRANCH   1  17
HETATM   17  C3  UNK   900      13.672  -3.533  -4.642  1.00  0.00     0.158 C 
BRANCH  17  18
HETATM   18  O1  UNK   900      13.221  -3.394  -3.289  1.00  0.00    -0.388 OA
HETATM   19  C21 UNK   900      14.023  -2.467  -2.578  1.00  0.00     0.202 C 
ENDBRANCH  17  18
BRANCH  17  20
HETATM   20  C9  UNK   900      13.088  -2.363  -5.445  1.00  0.00     0.197 C 
BRANCH  20  21
HETATM   21  O2  UNK   900      13.339  -2.537  -6.834  1.00  0.00    -0.398 OA
HETATM   22  H21 UNK   900      12.497  -2.395  -7.297  1.00  0.00     0.209 HD
ENDBRANCH  20  21
ENDBRANCH  17  20
ENDBRANCH   1  17
BRANCH   1  23
HETATM   23  C4  UNK   900      11.830  -5.321  -4.985  1.00  0.00    -0.018 A 
HETATM   24  C7  UNK   900      10.751  -5.099  -5.887  1.00  0.00    -0.001 A 
HETATM   25  C12 UNK   900       9.601  -5.613  -5.284  1.00  0.00     0.042 A 
HETATM   26  C14 UNK   900      10.644  -4.510  -7.161  1.00  0.00     0.014 A 
HETATM   27  N2  UNK   900       9.977  -6.124  -4.063  1.00  0.00    -0.365 N 
HETATM   28  C16 UNK   900       8.343  -5.566  -5.895  1.00  0.00     0.030 A 
HETATM   29  C10 UNK   900      11.322  -5.952  -3.873  1.00  0.00     0.097 A 
HETATM   30  H9  UNK   900       9.351  -6.563  -3.402  1.00  0.00     0.165 HD
HETATM   31  C22 UNK   900       8.261  -4.976  -7.160  1.00  0.00     0.002 A 
HETATM   32  C19 UNK   900       9.392  -4.456  -7.785  1.00  0.00     0.001 A 
ENDBRANCH   1  23
TORSDOF 9
ENDMDL
MODEL 5
REMARK VINA RESULT:      -5.3     26.664     28.743
REMARK  9 active torsions:
REMARK  status: ('A' for Active; 'I' for Inactive)
REMARK    1  A    between atoms: O1_1  and  C3_9 
REMARK    2  A    between atoms: O2_2  and  C9_15 
REMARK    3  A    between atoms: O3_3  and  C20_26 
REMARK    4  A    between atoms: C1_7  and  C2_8 
REMARK    5  A    between atoms: C1_7  and  C3_9 
REMARK    6  A    between atoms: C1_7  and  C4_10 
REMARK    7  A    between atoms: C3_9  and  C9_15 
REMARK    8  A    between atoms: C5_11  and  C11_17 
REMARK    9  A    between atoms: C11_17  and  C20_26 
ROOT
HETATM    1  C1  UNK   900     -14.522  -6.808  -2.937  1.00  0.00     0.102 C 
ENDROOT
BRANCH   1   2
HETATM    2  C2  UNK   900     -15.112  -5.948  -4.080  1.00  0.00     0.028 A 
HETATM    3  N1  UNK   900     -15.646  -6.531  -5.198  1.00  0.00    -0.358 N 
HETATM    4  C8  UNK   900     -16.102  -5.564  -6.066  1.00  0.00     0.043 A 
HETATM    5  H3  UNK   900     -15.713  -7.525  -5.365  1.00  0.00     0.166 HD
HETATM    6  C6  UNK   900     -15.847  -4.326  -5.473  1.00  0.00    -0.001 A 
HETATM    7  C15 UNK   900     -16.715  -5.690  -7.317  1.00  0.00     0.030 A 
HETATM    8  C5  UNK   900     -15.222  -4.583  -4.221  1.00  0.00    -0.012 A 
HETATM    9  C13 UNK   900     -16.221  -3.155  -6.161  1.00  0.00     0.014 A 
HETATM   10  C17 UNK   900     -16.836  -3.266  -7.414  1.00  0.00     0.001 A 
HETATM   11  C18 UNK   900     -17.078  -4.515  -7.982  1.00  0.00     0.002 A 
BRANCH   8  12
HETATM   12  C11 UNK   900     -14.771  -3.570  -3.245  1.00  0.00     0.151 C 
BRANCH  12  13
HETATM   13  C20 UNK   900     -15.787  -3.269  -2.153  1.00  0.00     0.143 C 
HETATM   14  O4  UNK   900     -16.957  -2.973  -2.354  1.00  0.00    -0.650 OA
BRANCH  13  15
HETATM   15  O3  UNK   900     -15.250  -3.361  -0.907  1.00  0.00    -0.776 OA
HETATM   16  H22 UNK   900     -15.918  -3.628  -0.241  1.00  0.00     0.167 HD
ENDBRANCH  13  15
ENDBRANCH  12  13
ENDBRANCH   8  12
ENDBRANCH   1   2
BRANCH   1  17
HETATM   17  C3  UNK   900     -14.111  -8.221  -3.498  1.00  0.00     0.158 C 
BRANCH  17  18
HETATM   18  O1  UNK   900     -15.279  -9.043  -3.621  1.00  0.00    -0.388 OA
HETATM   19  C21 UNK   900     -15.058 -10.328  -3.066  1.00  0.00     0.202 C 
ENDBRANCH  17  18
BRANCH  17  20
HETATM   20  C9  UNK   900     -13.116  -8.966  -2.598  1.00  0.00     0.197 C 
BRANCH  20  21
HETATM   21  O2  UNK   900     -11.788  -8.800  -3.079  1.00  0.00    -0.398 OA
HETATM   22  H21 UNK   900     -11.654  -9.458  -3.781  1.00  0.00     0.209 HD
ENDBRANCH  20  21
ENDBRANCH  17  20
ENDBRANCH   1  17
BRANCH   1  23
HETATM   23  C4  UNK   900     -15.376  -6.812  -1.732  1.00  0.00    -0.018 A 
HETATM   24  C7  UNK   900     -14.934  -6.774  -0.380  1.00  0.00    -0.001 A 
HETATM   25  C12 UNK   900     -16.076  -6.794   0.426  1.00  0.00     0.042 A 
HETATM   26  C14 UNK   900     -13.670  -6.725   0.238  1.00  0.00     0.014 A 
HETATM   27  N2  UNK   900     -17.164  -6.842  -0.416  1.00  0.00    -0.365 N 
HETATM   28  C16 UNK   900     -16.014  -6.767   1.823  1.00  0.00     0.030 A 
HETATM   29  C10 UNK   900     -16.752  -6.853  -1.722  1.00  0.00     0.097 A 
HETATM   30  H9  UNK   900     -18.128  -6.865  -0.113  1.00  0.00     0.165 HD
HETATM   31  C22 UNK   900     -14.748  -6.718   2.413  1.00  0.00     0.002 A 
HETATM   32  C19 UNK   900     -13.592  -6.697   1.636  1.00  0.00     0.001 A 
ENDBRANCH   1  23
TORSDOF 9
ENDMDL
MODEL 6
REMARK VINA RESULT:      -5.3     26.852     29.284
REMARK  9 active torsions:
REMARK  status: ('A' for Active; 'I' for Inactive)
REMARK    1  A    between atoms: O1_1  and  C3_9 
REMARK    2  A    between atoms: O2_2  and  C9_15 
REMARK    3  A    between atoms: O3_3  and  C20_26 
REMARK    4  A    between atoms: C1_7  and  C2_8 
REMARK    5  A    between atoms: C1_7  and  C3_9 
REMARK    6  A    between atoms: C1_7  and  C4_10 
REMARK    7  A    between atoms: C3_9  and  C9_15 
REMARK    8  A    between atoms: C5_11  and  C11_17 
REMARK    9  A    between atoms: C11_17  and  C20_26 
ROOT
HETATM    1  C1  UNK   900      -8.059  12.769   5.594  1.00  0.00     0.102 C 
ENDROOT
BRANCH   1   2
HETATM    2  C2  UNK   900      -7.623  14.040   4.827  1.00  0.00     0.028 A 
HETATM    3  N1  UNK   900      -7.554  15.255   5.455  1.00  0.00    -0.358 N 
HETATM    4  C8  UNK   900      -7.145  16.226   4.569  1.00  0.00     0.043 A 
HETATM    5  H3  UNK   900      -7.759  15.422   6.430  1.00  0.00     0.166 HD
HETATM    6  C6  UNK   900      -6.948  15.600   3.336  1.00  0.00    -0.001 A 
HETATM    7  C15 UNK   900      -6.936  17.595   4.762  1.00  0.00     0.030 A 
HETATM    8  C5  UNK   900      -7.253  14.222   3.513  1.00  0.00    -0.012 A 
HETATM    9  C13 UNK   900      -6.521  16.378   2.242  1.00  0.00     0.014 A 
HETATM   10  C17 UNK   900      -6.308  17.750   2.421  1.00  0.00     0.001 A 
HETATM   11  C18 UNK   900      -6.514  18.347   3.662  1.00  0.00     0.002 A 
BRANCH   8  12
HETATM   12  C11 UNK   900      -7.186  13.171   2.476  1.00  0.00     0.151 C 
BRANCH  12  13
HETATM   13  C20 UNK   900      -8.434  13.077   1.612  1.00  0.00     0.143 C 
HETATM   14  O4  UNK   900      -9.435  12.434   1.901  1.00  0.00    -0.650 OA
BRANCH  13  15
HETATM   15  O3  UNK   900      -8.321  13.792   0.461  1.00  0.00    -0.776 OA
HETATM   16  H22 UNK   900      -8.205  14.750   0.637  1.00  0.00     0.167 HD
ENDBRANCH  13  15
ENDBRANCH  12  13
ENDBRANCH   8  12
ENDBRANCH   1   2
BRANCH   1  17
HETATM   17  C3  UNK   900      -9.608  12.827   5.874  1.00  0.00     0.158 C 
BRANCH  17  18
HETATM   18  O1  UNK   900     -10.184  11.538   5.630  1.00  0.00    -0.388 OA
HETATM   19  C21 UNK   900     -10.979  11.120   6.726  1.00  0.00     0.202 C 
ENDBRANCH  17  18
BRANCH  17  20
HETATM   20  C9  UNK   900     -10.348  13.839   4.989  1.00  0.00     0.197 C 
BRANCH  20  21
HETATM   21  O2  UNK   900     -11.097  13.167   3.984  1.00  0.00    -0.398 OA
HETATM   22  H21 UNK   900     -11.888  13.704   3.809  1.00  0.00     0.209 HD
ENDBRANCH  20  21
ENDBRANCH  17  20
ENDBRANCH   1  17
BRANCH   1  23
HETATM   23  C4  UNK   900      -7.198  12.488   6.761  1.00  0.00    -0.018 A 
HETATM   24  C7  UNK   900      -5.776  12.525   6.793  1.00  0.00    -0.001 A 
HETATM   25  C12 UNK   900      -5.386  12.193   8.093  1.00  0.00     0.042 A 
HETATM   26  C14 UNK   900      -4.780  12.808   5.839  1.00  0.00     0.014 A 
HETATM   27  N2  UNK   900      -6.537  11.966   8.814  1.00  0.00    -0.365 N 
HETATM   28  C16 UNK   900      -4.046  12.131   8.487  1.00  0.00     0.030 A 
HETATM   29  C10 UNK   900      -7.637  12.141   8.018  1.00  0.00     0.097 A 
HETATM   30  H9  UNK   900      -6.565  11.707   9.791  1.00  0.00     0.165 HD
HETATM   31  C22 UNK   900      -3.075  12.417   7.523  1.00  0.00     0.002 A 
HETATM   32  C19 UNK   900      -3.433  12.751   6.219  1.00  0.00     0.001 A 
ENDBRANCH   1  23
TORSDOF 9
ENDMDL
MODEL 7
REMARK VINA RESULT:      -5.2      3.044      5.767
REMARK  9 active torsions:
REMARK  status: ('A' for Active; 'I' for Inactive)
REMARK    1  A    between atoms: O1_1  and  C3_9 
REMARK    2  A    between atoms: O2_2  and  C9_15 
REMARK    3  A    between atoms: O3_3  and  C20_26 
REMARK    4  A    between atoms: C1_7  and  C2_8 
REMARK    5  A    between atoms: C1_7  and  C3_9 
REMARK    6  A    between atoms: C1_7  and  C4_10 
REMARK    7  A    between atoms: C3_9  and  C9_15 
REMARK    8  A    between atoms: C5_11  and  C11_17 
REMARK    9  A    between atoms: C11_17  and  C20_26 
ROOT
HETATM    1  C1  UNK   900      13.463  -5.361  -6.953  1.00  0.00     0.102 C 
ENDROOT
BRANCH   1   2
HETATM    2  C2  UNK   900      11.969  -5.134  -7.287  1.00  0.00     0.028 A 
HETATM    3  N1  UNK   900      11.315  -5.938  -8.181  1.00  0.00    -0.358 N 
HETATM    4  C8  UNK   900      10.004  -5.539  -8.309  1.00  0.00     0.043 A 
HETATM    5  H3  UNK   900      11.724  -6.723  -8.670  1.00  0.00     0.166 HD
HETATM    6  C6  UNK   900       9.825  -4.442  -7.464  1.00  0.00    -0.001 A 
HETATM    7  C15 UNK   900       8.974  -6.061  -9.099  1.00  0.00     0.030 A 
HETATM    8  C5  UNK   900      11.072  -4.197  -6.826  1.00  0.00    -0.012 A 
HETATM    9  C13 UNK   900       8.555  -3.834  -7.405  1.00  0.00     0.014 A 
HETATM   10  C17 UNK   900       7.515  -4.344  -8.190  1.00  0.00     0.001 A 
HETATM   11  C18 UNK   900       7.723  -5.441  -9.024  1.00  0.00     0.002 A 
BRANCH   8  12
HETATM   12  C11 UNK   900      11.357  -3.130  -5.844  1.00  0.00     0.151 C 
BRANCH  12  13
HETATM   13  C20 UNK   900      11.604  -1.765  -6.470  1.00  0.00     0.143 C 
HETATM   14  O4  UNK   900      10.964  -0.755  -6.211  1.00  0.00    -0.650 OA
BRANCH  13  15
HETATM   15  O3  UNK   900      12.626  -1.785  -7.366  1.00  0.00    -0.776 OA
HETATM   16  H22 UNK   900      13.108  -2.639  -7.351  1.00  0.00     0.167 HD
ENDBRANCH  13  15
ENDBRANCH  12  13
ENDBRANCH   8  12
ENDBRANCH   1   2
BRANCH   1  17
HETATM   17  C3  UNK   900      14.283  -5.523  -8.288  1.00  0.00     0.158 C 
BRANCH  17  18
HETATM   18  O1  UNK   900      15.583  -6.045  -7.988  1.00  0.00    -0.388 OA
HETATM   19  C21 UNK   900      16.490  -5.796  -9.047  1.00  0.00     0.202 C 
ENDBRANCH  17  18
BRANCH  17  20
HETATM   20  C9  UNK   900      14.480  -4.203  -9.045  1.00  0.00     0.197 C 
BRANCH  20  21
HETATM   21  O2  UNK   900      13.265  -3.796  -9.663  1.00  0.00    -0.398 OA
HETATM   22  H21 UNK   900      12.780  -4.604  -9.900  1.00  0.00     0.209 HD
ENDBRANCH  20  21
ENDBRANCH  17  20
ENDBRANCH   1  17
BRANCH   1  23
HETATM   23  C4  UNK   900      13.663  -6.413  -5.937  1.00  0.00    -0.018 A 
HETATM   24  C7  UNK   900      14.117  -6.226  -4.600  1.00  0.00    -0.001 A 
HETATM   25  C12 UNK   900      14.157  -7.487  -4.001  1.00  0.00     0.042 A 
HETATM   26  C14 UNK   900      14.498  -5.102  -3.843  1.00  0.00     0.014 A 
HETATM   27  N2  UNK   900      13.743  -8.398  -4.945  1.00  0.00    -0.365 N 
HETATM   28  C16 UNK   900      14.561  -7.679  -2.676  1.00  0.00     0.030 A 
HETATM   29  C10 UNK   900      13.442  -7.759  -6.119  1.00  0.00     0.097 A 
HETATM   30  H9  UNK   900      13.670  -9.395  -4.794  1.00  0.00     0.165 HD
HETATM   31  C22 UNK   900      14.935  -6.549  -1.943  1.00  0.00     0.002 A 
HETATM   32  C19 UNK   900      14.904  -5.279  -2.515  1.00  0.00     0.001 A 
ENDBRANCH   1  23
TORSDOF 9
ENDMDL
MODEL 8
REMARK VINA RESULT:      -5.2     18.811     21.526
REMARK  9 active torsions:
REMARK  status: ('A' for Active; 'I' for Inactive)
REMARK    1  A    between atoms: O1_1  and  C3_9 
REMARK    2  A    between atoms: O2_2  and  C9_15 
REMARK    3  A    between atoms: O3_3  and  C20_26 
REMARK    4  A    between atoms: C1_7  and  C2_8 
REMARK    5  A    between atoms: C1_7  and  C3_9 
REMARK    6  A    between atoms: C1_7  and  C4_10 
REMARK    7  A    between atoms: C3_9  and  C9_15 
REMARK    8  A    between atoms: C5_11  and  C11_17 
REMARK    9  A    between atoms: C11_17  and  C20_26 
ROOT
HETATM    1  C1  UNK   900      -3.545   4.337 -14.527  1.00  0.00     0.102 C 
ENDROOT
BRANCH   1   2
HETATM    2  C2  UNK   900      -4.080   2.894 -14.368  1.00  0.00     0.028 A 
HETATM    3  N1  UNK   900      -3.472   2.005 -13.523  1.00  0.00    -0.358 N 
HETATM    4  C8  UNK   900      -4.127   0.795 -13.555  1.00  0.00     0.043 A 
HETATM    5  H3  UNK   900      -2.667   2.204 -12.945  1.00  0.00     0.166 HD
HETATM    6  C6  UNK   900      -5.187   0.926 -14.454  1.00  0.00    -0.001 A 
HETATM    7  C15 UNK   900      -3.865  -0.393 -12.864  1.00  0.00     0.030 A 
HETATM    8  C5  UNK   900      -5.146   2.255 -14.960  1.00  0.00    -0.012 A 
HETATM    9  C13 UNK   900      -6.029  -0.183 -14.675  1.00  0.00     0.014 A 
HETATM   10  C17 UNK   900      -5.778  -1.378 -13.991  1.00  0.00     0.001 A 
HETATM   11  C18 UNK   900      -4.712  -1.479 -13.100  1.00  0.00     0.002 A 
BRANCH   8  12
HETATM   12  C11 UNK   900      -6.077   2.846 -15.943  1.00  0.00     0.151 C 
BRANCH  12  13
HETATM   13  C20 UNK   900      -5.672   2.618 -17.391  1.00  0.00     0.143 C 
HETATM   14  O4  UNK   900      -6.184   1.792 -18.135  1.00  0.00    -0.650 OA
BRANCH  13  15
HETATM   15  O3  UNK   900      -4.663   3.441 -17.781  1.00  0.00    -0.776 OA
HETATM   16  H22 UNK   900      -4.091   3.021 -18.458  1.00  0.00     0.167 HD
ENDBRANCH  13  15
ENDBRANCH  12  13
ENDBRANCH   8  12
ENDBRANCH   1   2
BRANCH   1  17
HETATM   17  C3  UNK   900      -2.142   4.304 -15.243  1.00  0.00     0.158 C 
BRANCH  17  18
HETATM   18  O1  UNK   900      -2.014   3.084 -15.983  1.00  0.00    -0.388 OA
HETATM   19  C21 UNK   900      -1.193   3.264 -17.124  1.00  0.00     0.202 C 
ENDBRANCH  17  18
BRANCH  17  20
HETATM   20  C9  UNK   900      -0.960   4.378 -14.267  1.00  0.00     0.197 C 
BRANCH  20  21
HETATM   21  O2  UNK   900      -0.228   5.582 -14.460  1.00  0.00    -0.398 OA
HETATM   22  H21 UNK   900      -0.874   6.280 -14.658  1.00  0.00     0.209 HD
ENDBRANCH  20  21
ENDBRANCH  17  20
ENDBRANCH   1  17
BRANCH   1  23
HETATM   23  C4  UNK   900      -3.614   5.109 -13.270  1.00  0.00    -0.018 A 
HETATM   24  C7  UNK   900      -4.544   6.142 -12.959  1.00  0.00    -0.001 A 
HETATM   25  C12 UNK   900      -4.242   6.590 -11.671  1.00  0.00     0.042 A 
HETATM   26  C14 UNK   900      -5.614   6.739 -13.652  1.00  0.00     0.014 A 
HETATM   27  N2  UNK   900      -3.169   5.852 -11.226  1.00  0.00    -0.365 N 
HETATM   28  C16 UNK   900      -4.962   7.609 -11.039  1.00  0.00     0.030 A 
HETATM   29  C10 UNK   900      -2.782   4.954 -12.185  1.00  0.00     0.097 A 
HETATM   30  H9  UNK   900      -2.731   5.956 -10.321  1.00  0.00     0.165 HD
HETATM   31  C22 UNK   900      -6.020   8.187 -11.746  1.00  0.00     0.002 A 
HETATM   32  C19 UNK   900      -6.344   7.761 -13.032  1.00  0.00     0.001 A 
ENDBRANCH   1  23
TORSDOF 9
ENDMDL
MODEL 9
REMARK VINA RESULT:      -5.1     18.412     20.126
REMARK  9 active torsions:
REMARK  status: ('A' for Active; 'I' for Inactive)
REMARK    1  A    between atoms: O1_1  and  C3_9 
REMARK    2  A    between atoms: O2_2  and  C9_15 
REMARK    3  A    between atoms: O3_3  and  C20_26 
REMARK    4  A    between atoms: C1_7  and  C2_8 
REMARK    5  A    between atoms: C1_7  and  C3_9 
REMARK    6  A    between atoms: C1_7  and  C4_10 
REMARK    7  A    between atoms: C3_9  and  C9_15 
REMARK    8  A    between atoms: C5_11  and  C11_17 
REMARK    9  A    between atoms: C11_17  and  C20_26 
ROOT
HETATM    1  C1  UNK   900       8.098   5.865  12.277  1.00  0.00     0.102 C 
ENDROOT
BRANCH   1   2
HETATM    2  C2  UNK   900       8.335   6.912  11.162  1.00  0.00     0.028 A 
HETATM    3  N1  UNK   900       7.544   8.024  11.060  1.00  0.00    -0.358 N 
HETATM    4  C8  UNK   900       7.948   8.799   9.996  1.00  0.00     0.043 A 
HETATM    5  H3  UNK   900       6.780   8.259  11.680  1.00  0.00     0.166 HD
HETATM    6  C6  UNK   900       9.034   8.150   9.406  1.00  0.00    -0.001 A 
HETATM    7  C15 UNK   900       7.440  10.011   9.517  1.00  0.00     0.030 A 
HETATM    8  C5  UNK   900       9.267   6.962  10.151  1.00  0.00    -0.012 A 
HETATM    9  C13 UNK   900       9.645   8.740   8.281  1.00  0.00     0.014 A 
HETATM   10  C17 UNK   900       9.148   9.953   7.791  1.00  0.00     0.001 A 
HETATM   11  C18 UNK   900       8.062  10.577   8.400  1.00  0.00     0.002 A 
BRANCH   8  12
HETATM   12  C11 UNK   900      10.320   5.958   9.890  1.00  0.00     0.151 C 
BRANCH  12  13
HETATM   13  C20 UNK   900      11.714   6.402  10.310  1.00  0.00     0.143 C 
HETATM   14  O4  UNK   900      11.947   7.304  11.102  1.00  0.00    -0.650 OA
BRANCH  13  15
HETATM   15  O3  UNK   900      12.692   5.680   9.701  1.00  0.00    -0.776 OA
HETATM   16  H22 UNK   900      12.427   4.745   9.571  1.00  0.00     0.167 HD
ENDBRANCH  13  15
ENDBRANCH  12  13
ENDBRANCH   8  12
ENDBRANCH   1   2
BRANCH   1  17
HETATM   17  C3  UNK   900       9.425   5.664  13.102  1.00  0.00     0.158 C 
BRANCH  17  18
HETATM   18  O1  UNK   900       9.200   4.697  14.136  1.00  0.00    -0.388 OA
HETATM   19  C21 UNK   900      10.408   4.055  14.505  1.00  0.00     0.202 C 
ENDBRANCH  17  18
BRANCH  17  20
HETATM   20  C9  UNK   900       9.923   6.950  13.774  1.00  0.00     0.197 C 
BRANCH  20  21
HETATM   21  O2  UNK   900       8.908   7.506  14.601  1.00  0.00    -0.398 OA
HETATM   22  H21 UNK   900       8.538   6.778  15.128  1.00  0.00     0.209 HD
ENDBRANCH  20  21
ENDBRANCH  17  20
ENDBRANCH   1  17
BRANCH   1  23
HETATM   23  C4  UNK   900       7.456   4.635  11.771  1.00  0.00    -0.018 A 
HETATM   24  C7  UNK   900       6.067   4.445  11.522  1.00  0.00    -0.001 A 
HETATM   25  C12 UNK   900       5.909   3.138  11.055  1.00  0.00     0.042 A 
HETATM   26  C14 UNK   900       4.927   5.261  11.650  1.00  0.00     0.014 A 
HETATM   27  N2  UNK   900       7.160   2.564  11.026  1.00  0.00    -0.365 N 
HETATM   28  C16 UNK   900       4.663   2.605  10.708  1.00  0.00     0.030 A 
HETATM   29  C10 UNK   900       8.101   3.461  11.457  1.00  0.00     0.097 A 
HETATM   30  H9  UNK   900       7.356   1.618  10.728  1.00  0.00     0.165 HD
HETATM   31  C22 UNK   900       3.546   3.434  10.843  1.00  0.00     0.002 A 
HETATM   32  C19 UNK   900       3.673   4.742  11.306  1.00  0.00     0.001 A 
ENDBRANCH   1  23
TORSDOF 9
ENDMDL
