MODEL 1
REMARK VINA RESULT:      -5.0      0.000      0.000
REMARK  3 active torsions:
REMARK  status: ('A' for Active; 'I' for Inactive)
REMARK    1  A    between atoms: O2_2  and  C1_5 
REMARK    2  A    between atoms: O3_3  and  C7_11 
REMARK    3  A    between atoms: O4_4  and  C9_13 
ROOT
HETATM    1  O1  UNK   900      -7.497  -1.351 -15.339  1.00  0.00    -0.379 OA
HETATM    2  C1  UNK   900      -5.587  -1.735 -13.892  1.00  0.00     0.181 C 
HETATM    3  C2  UNK   900      -6.449  -2.281 -15.040  1.00  0.00     0.151 C 
HETATM    4  C3  UNK   900      -5.199  -0.295 -14.097  1.00  0.00    -0.007 A 
HETATM    5  C4  UNK   900      -5.926   0.508 -14.990  1.00  0.00     0.008 A 
HETATM    6  C5  UNK   900      -7.048  -0.078 -15.806  1.00  0.00     0.210 C 
HETATM    7  C6  UNK   900      -4.140   0.264 -13.368  1.00  0.00    -0.019 A 
HETATM    8  C7  UNK   900      -5.569   1.852 -15.160  1.00  0.00     0.080 A 
HETATM    9  C8  UNK   900      -5.641  -2.655 -16.283  1.00  0.00     0.042 C 
HETATM   10  C9  UNK   900      -3.797   1.604 -13.539  1.00  0.00     0.074 A 
HETATM   11  C10 UNK   900      -4.509   2.397 -14.434  1.00  0.00     0.074 A 
HETATM   12  C11 UNK   900      -3.360  -0.561 -12.392  1.00  0.00     0.052 C 
ENDROOT
BRANCH   2  13
HETATM   13  O2  UNK   900      -6.337  -1.795 -12.679  1.00  0.00    -0.388 OA
HETATM   14  H12 UNK   900      -6.222  -0.946 -12.221  1.00  0.00     0.210 HD
ENDBRANCH   2  13
BRANCH   8  15
HETATM   15  O3  UNK   900      -6.241   2.650 -16.038  1.00  0.00    -0.355 OA
HETATM   16  C12 UNK   900      -5.525   3.753 -16.588  1.00  0.00     0.210 C 
ENDBRANCH   8  15
BRANCH  10  17
HETATM   17  O4  UNK   900      -2.767   2.158 -12.838  1.00  0.00    -0.360 OA
HETATM   18  H13 UNK   900      -2.577   3.042 -13.195  1.00  0.00     0.217 HD
ENDBRANCH  10  17
TORSDOF 3
ENDMDL
MODEL 2
REMARK VINA RESULT:      -4.9     23.707     25.434
REMARK  3 active torsions:
REMARK  status: ('A' for Active; 'I' for Inactive)
REMARK    1  A    between atoms: O2_2  and  C1_5 
REMARK    2  A    between atoms: O3_3  and  C7_11 
REMARK    3  A    between atoms: O4_4  and  C9_13 
ROOT
HETATM    1  O1  UNK   900      -3.378  12.526   7.267  1.00  0.00    -0.379 OA
HETATM    2  C1  UNK   900      -4.941  12.397   9.119  1.00  0.00     0.181 C 
HETATM    3  C2  UNK   900      -3.667  13.054   8.567  1.00  0.00     0.151 C 
HETATM    4  C3  UNK   900      -6.061  12.378   8.114  1.00  0.00    -0.007 A 
HETATM    5  C4  UNK   900      -5.781  12.535   6.747  1.00  0.00     0.008 A 
HETATM    6  C5  UNK   900      -4.374  12.798   6.280  1.00  0.00     0.210 C 
HETATM    7  C6  UNK   900      -7.383  12.162   8.529  1.00  0.00    -0.019 A 
HETATM    8  C7  UNK   900      -6.828  12.497   5.817  1.00  0.00     0.080 A 
HETATM    9  C8  UNK   900      -3.721  14.581   8.569  1.00  0.00     0.042 C 
HETATM   10  C9  UNK   900      -8.417  12.120   7.596  1.00  0.00     0.074 A 
HETATM   11  C10 UNK   900      -8.141  12.288   6.241  1.00  0.00     0.074 A 
HETATM   12  C11 UNK   900      -7.710  11.970   9.977  1.00  0.00     0.052 C 
ENDROOT
BRANCH   2  13
HETATM   13  O2  UNK   900      -4.657  11.038   9.450  1.00  0.00    -0.388 OA
HETATM   14  H12 UNK   900      -5.032  10.480   8.748  1.00  0.00     0.210 HD
ENDBRANCH   2  13
BRANCH   8  15
HETATM   15  O3  UNK   900      -6.590  12.670   4.486  1.00  0.00    -0.355 OA
HETATM   16  C12 UNK   900      -7.502  13.497   3.767  1.00  0.00     0.210 C 
ENDBRANCH   8  15
BRANCH  10  17
HETATM   17  O4  UNK   900      -9.706  11.913   7.988  1.00  0.00    -0.360 OA
HETATM   18  H13 UNK   900     -10.119  12.770   8.191  1.00  0.00     0.217 HD
ENDBRANCH  10  17
TORSDOF 3
ENDMDL
MODEL 3
REMARK VINA RESULT:      -4.6     33.226     34.379
REMARK  3 active torsions:
REMARK  status: ('A' for Active; 'I' for Inactive)
REMARK    1  A    between atoms: O2_2  and  C1_5 
REMARK    2  A    between atoms: O3_3  and  C7_11 
REMARK    3  A    between atoms: O4_4  and  C9_13 
ROOT
HETATM    1  O1  UNK   900      22.350  -2.384   2.720  1.00  0.00    -0.379 OA
HETATM    2  C1  UNK   900      23.808  -4.101   1.817  1.00  0.00     0.181 C 
HETATM    3  C2  UNK   900      23.636  -2.607   2.131  1.00  0.00     0.151 C 
HETATM    4  C3  UNK   900      23.413  -4.981   2.972  1.00  0.00    -0.007 A 
HETATM    5  C4  UNK   900      22.586  -4.477   3.989  1.00  0.00     0.008 A 
HETATM    6  C5  UNK   900      22.150  -3.037   3.975  1.00  0.00     0.210 C 
HETATM    7  C6  UNK   900      23.831  -6.318   3.020  1.00  0.00    -0.019 A 
HETATM    8  C7  UNK   900      22.209  -5.310   5.050  1.00  0.00     0.080 A 
HETATM    9  C8  UNK   900      24.767  -2.030   2.982  1.00  0.00     0.042 C 
HETATM   10  C9  UNK   900      23.445  -7.141   4.076  1.00  0.00     0.074 A 
HETATM   11  C10 UNK   900      22.636  -6.638   5.091  1.00  0.00     0.074 A 
HETATM   12  C11 UNK   900      24.695  -6.891   1.939  1.00  0.00     0.052 C 
ENDROOT
BRANCH   2  13
HETATM   13  O2  UNK   900      22.960  -4.446   0.722  1.00  0.00    -0.388 OA
HETATM   14  H12 UNK   900      23.013  -5.410   0.602  1.00  0.00     0.210 HD
ENDBRANCH   2  13
BRANCH   8  15
HETATM   15  O3  UNK   900      21.427  -4.842   6.064  1.00  0.00    -0.355 OA
HETATM   16  C12 UNK   900      20.918  -5.803   6.986  1.00  0.00     0.210 C 
ENDBRANCH   8  15
BRANCH  10  17
HETATM   17  O4  UNK   900      23.848  -8.442   4.134  1.00  0.00    -0.360 OA
HETATM   18  H13 UNK   900      24.817  -8.479   4.068  1.00  0.00     0.217 HD
ENDBRANCH  10  17
TORSDOF 3
ENDMDL
MODEL 4
REMARK VINA RESULT:      -4.6      3.209      5.822
REMARK  3 active torsions:
REMARK  status: ('A' for Active; 'I' for Inactive)
REMARK    1  A    between atoms: O2_2  and  C1_5 
REMARK    2  A    between atoms: O3_3  and  C7_11 
REMARK    3  A    between atoms: O4_4  and  C9_13 
ROOT
HETATM    1  O1  UNK   900      -1.398  -3.692 -14.677  1.00  0.00    -0.379 OA
HETATM    2  C1  UNK   900      -2.713  -1.660 -14.498  1.00  0.00     0.181 C 
HETATM    3  C2  UNK   900      -1.500  -2.343 -15.147  1.00  0.00     0.151 C 
HETATM    4  C3  UNK   900      -3.953  -2.510 -14.558  1.00  0.00    -0.007 A 
HETATM    5  C4  UNK   900      -3.847  -3.894 -14.775  1.00  0.00     0.008 A 
HETATM    6  C5  UNK   900      -2.504  -4.527 -15.023  1.00  0.00     0.210 C 
HETATM    7  C6  UNK   900      -5.216  -1.937 -14.356  1.00  0.00    -0.019 A 
HETATM    8  C7  UNK   900      -5.006  -4.680 -14.810  1.00  0.00     0.080 A 
HETATM    9  C8  UNK   900      -1.503  -2.264 -16.673  1.00  0.00     0.042 C 
HETATM   10  C9  UNK   900      -6.363  -2.728 -14.387  1.00  0.00     0.074 A 
HETATM   11  C10 UNK   900      -6.259  -4.098 -14.615  1.00  0.00     0.074 A 
HETATM   12  C11 UNK   900      -5.361  -0.469 -14.101  1.00  0.00     0.052 C 
ENDROOT
BRANCH   2  13
HETATM   13  O2  UNK   900      -2.433  -1.431 -13.117  1.00  0.00    -0.388 OA
HETATM   14  H12 UNK   900      -1.469  -1.342 -13.023  1.00  0.00     0.210 HD
ENDBRANCH   2  13
BRANCH   8  15
HETATM   15  O3  UNK   900      -4.936  -6.021 -15.043  1.00  0.00    -0.355 OA
HETATM   16  C12 UNK   900      -6.165  -6.702 -15.282  1.00  0.00     0.210 C 
ENDBRANCH   8  15
BRANCH  10  17
HETATM   17  O4  UNK   900      -7.597  -2.181 -14.195  1.00  0.00    -0.360 OA
HETATM   18  H13 UNK   900      -7.502  -1.339 -13.719  1.00  0.00     0.217 HD
ENDBRANCH  10  17
TORSDOF 3
ENDMDL
MODEL 5
REMARK VINA RESULT:      -4.6     24.097     25.872
REMARK  3 active torsions:
REMARK  status: ('A' for Active; 'I' for Inactive)
REMARK    1  A    between atoms: O2_2  and  C1_5 
REMARK    2  A    between atoms: O3_3  and  C7_11 
REMARK    3  A    between atoms: O4_4  and  C9_13 
ROOT
HETATM    1  O1  UNK   900      -8.142  11.821   9.243  1.00  0.00    -0.379 OA
HETATM    2  C1  UNK   900      -7.619  12.671   7.031  1.00  0.00     0.181 C 
HETATM    3  C2  UNK   900      -8.518  12.802   8.269  1.00  0.00     0.151 C 
HETATM    4  C3  UNK   900      -6.160  12.570   7.386  1.00  0.00    -0.007 A 
HETATM    5  C4  UNK   900      -5.777  12.195   8.684  1.00  0.00     0.008 A 
HETATM    6  C5  UNK   900      -6.814  11.964   9.750  1.00  0.00     0.210 C 
HETATM    7  C6  UNK   900      -5.176  12.808   6.416  1.00  0.00    -0.019 A 
HETATM    8  C7  UNK   900      -4.416  12.085   8.999  1.00  0.00     0.080 A 
HETATM    9  C8  UNK   900      -8.543  14.214   8.856  1.00  0.00     0.042 C 
HETATM   10  C9  UNK   900      -3.825  12.690   6.738  1.00  0.00     0.074 A 
HETATM   11  C10 UNK   900      -3.445  12.330   8.028  1.00  0.00     0.074 A 
HETATM   12  C11 UNK   900      -5.553  13.188   5.018  1.00  0.00     0.052 C 
ENDROOT
BRANCH   2  13
HETATM   13  O2  UNK   900      -7.961  11.474   6.333  1.00  0.00    -0.388 OA
HETATM   14  H12 UNK   900      -8.865  11.230   6.594  1.00  0.00     0.210 HD
ENDBRANCH   2  13
BRANCH   8  15
HETATM   15  O3  UNK   900      -4.014  11.746  10.257  1.00  0.00    -0.355 OA
HETATM   16  C12 UNK   900      -2.614  11.581  10.466  1.00  0.00     0.210 C 
ENDBRANCH   8  15
BRANCH  10  17
HETATM   17  O4  UNK   900      -2.860  12.921   5.804  1.00  0.00    -0.360 OA
HETATM   18  H13 UNK   900      -2.071  13.284   6.242  1.00  0.00     0.217 HD
ENDBRANCH  10  17
TORSDOF 3
ENDMDL
MODEL 6
REMARK VINA RESULT:      -4.5     27.129     29.122
REMARK  3 active torsions:
REMARK  status: ('A' for Active; 'I' for Inactive)
REMARK    1  A    between atoms: O2_2  and  C1_5 
REMARK    2  A    between atoms: O3_3  and  C7_11 
REMARK    3  A    between atoms: O4_4  and  C9_13 
ROOT
HETATM    1  O1  UNK   900       8.624   4.343  12.612  1.00  0.00    -0.379 OA
HETATM    2  C1  UNK   900       6.702   5.800  12.348  1.00  0.00     0.181 C 
HETATM    3  C2  UNK   900       8.226   5.660  12.217  1.00  0.00     0.151 C 
HETATM    4  C3  UNK   900       5.962   4.640  11.738  1.00  0.00    -0.007 A 
HETATM    5  C4  UNK   900       6.628   3.425  11.509  1.00  0.00     0.008 A 
HETATM    6  C5  UNK   900       8.099   3.293  11.798  1.00  0.00     0.210 C 
HETATM    7  C6  UNK   900       4.598   4.749  11.435  1.00  0.00    -0.019 A 
HETATM    8  C7  UNK   900       5.926   2.344  10.958  1.00  0.00     0.080 A 
HETATM    9  C8  UNK   900       8.752   6.029  10.830  1.00  0.00     0.042 C 
HETATM   10  C9  UNK   900       3.907   3.667  10.894  1.00  0.00     0.074 A 
HETATM   11  C10 UNK   900       4.570   2.466  10.654  1.00  0.00     0.074 A 
HETATM   12  C11 UNK   900       3.855   6.024  11.689  1.00  0.00     0.052 C 
ENDROOT
BRANCH   2  13
HETATM   13  O2  UNK   900       6.356   5.832  13.733  1.00  0.00    -0.388 OA
HETATM   14  H12 UNK   900       5.410   5.619  13.804  1.00  0.00     0.210 HD
ENDBRANCH   2  13
BRANCH   8  15
HETATM   15  O3  UNK   900       6.552   1.161  10.702  1.00  0.00    -0.355 OA
HETATM   16  C12 UNK   900       5.963  -0.015  11.253  1.00  0.00     0.210 C 
ENDBRANCH   8  15
BRANCH  10  17
HETATM   17  O4  UNK   900       2.581   3.762  10.593  1.00  0.00    -0.360 OA
HETATM   18  H13 UNK   900       2.105   3.021  11.006  1.00  0.00     0.217 HD
ENDBRANCH  10  17
TORSDOF 3
ENDMDL
MODEL 7
REMARK VINA RESULT:      -4.5      8.321     10.275
REMARK  3 active torsions:
REMARK  status: ('A' for Active; 'I' for Inactive)
REMARK    1  A    between atoms: O2_2  and  C1_5 
REMARK    2  A    between atoms: O3_3  and  C7_11 
REMARK    3  A    between atoms: O4_4  and  C9_13 
ROOT
HETATM    1  O1  UNK   900       4.103  -0.584 -17.407  1.00  0.00    -0.379 OA
HETATM    2  C1  UNK   900       2.071  -1.547 -16.494  1.00  0.00     0.181 C 
HETATM    3  C2  UNK   900       2.836  -1.150 -17.765  1.00  0.00     0.151 C 
HETATM    4  C3  UNK   900       2.925  -2.317 -15.524  1.00  0.00    -0.007 A 
HETATM    5  C4  UNK   900       4.325  -2.254 -15.616  1.00  0.00     0.008 A 
HETATM    6  C5  UNK   900       4.983  -1.480 -16.726  1.00  0.00     0.210 C 
HETATM    7  C6  UNK   900       2.332  -3.067 -14.498  1.00  0.00    -0.019 A 
HETATM    8  C7  UNK   900       5.111  -2.959 -14.696  1.00  0.00     0.080 A 
HETATM    9  C8  UNK   900       2.980  -2.294 -18.769  1.00  0.00     0.042 C 
HETATM   10  C9  UNK   900       3.123  -3.760 -13.583  1.00  0.00     0.074 A 
HETATM   11  C10 UNK   900       4.511  -3.708 -13.683  1.00  0.00     0.074 A 
HETATM   12  C11 UNK   900       0.843  -3.137 -14.360  1.00  0.00     0.052 C 
ENDROOT
BRANCH   2  13
HETATM   13  O2  UNK   900       1.642  -0.363 -15.822  1.00  0.00    -0.388 OA
HETATM   14  H12 UNK   900       2.092   0.391 -16.239  1.00  0.00     0.210 HD
ENDBRANCH   2  13
BRANCH   8  15
HETATM   15  O3  UNK   900       6.472  -2.936 -14.775  1.00  0.00    -0.355 OA
HETATM   16  C12 UNK   900       7.194  -3.064 -13.553  1.00  0.00     0.210 C 
ENDBRANCH   8  15
BRANCH  10  17
HETATM   17  O4  UNK   900       2.558  -4.495 -12.584  1.00  0.00    -0.360 OA
HETATM   18  H13 UNK   900       3.188  -5.177 -12.293  1.00  0.00     0.217 HD
ENDBRANCH  10  17
TORSDOF 3
ENDMDL
MODEL 8
REMARK VINA RESULT:      -4.2     33.635     35.565
REMARK  3 active torsions:
REMARK  status: ('A' for Active; 'I' for Inactive)
REMARK    1  A    between atoms: O2_2  and  C1_5 
REMARK    2  A    between atoms: O3_3  and  C7_11 
REMARK    3  A    between atoms: O4_4  and  C9_13 
ROOT
HETATM    1  O1  UNK   900      22.439  -5.962   3.277  1.00  0.00    -0.379 OA
HETATM    2  C1  UNK   900      24.140  -7.108   4.575  1.00  0.00     0.181 C 
HETATM    3  C2  UNK   900      23.852  -6.055   3.496  1.00  0.00     0.151 C 
HETATM    4  C3  UNK   900      23.260  -6.948   5.786  1.00  0.00    -0.007 A 
HETATM    5  C4  UNK   900      22.065  -6.217   5.695  1.00  0.00     0.008 A 
HETATM    6  C5  UNK   900      21.690  -5.524   4.412  1.00  0.00     0.210 C 
HETATM    7  C6  UNK   900      23.605  -7.562   6.998  1.00  0.00    -0.019 A 
HETATM    8  C7  UNK   900      21.244  -6.089   6.822  1.00  0.00     0.080 A 
HETATM    9  C8  UNK   900      24.478  -4.692   3.794  1.00  0.00     0.042 C 
HETATM   10  C9  UNK   900      22.778  -7.435   8.113  1.00  0.00     0.074 A 
HETATM   11  C10 UNK   900      21.600  -6.698   8.026  1.00  0.00     0.074 A 
HETATM   12  C11 UNK   900      24.861  -8.367   7.121  1.00  0.00     0.052 C 
ENDROOT
BRANCH   2  13
HETATM   13  O2  UNK   900      23.877  -8.405   4.039  1.00  0.00    -0.388 OA
HETATM   14  H12 UNK   900      24.424  -9.042   4.530  1.00  0.00     0.210 HD
ENDBRANCH   2  13
BRANCH   8  15
HETATM   15  O3  UNK   900      20.091  -5.364   6.770  1.00  0.00    -0.355 OA
HETATM   16  C12 UNK   900      19.836  -4.474   7.854  1.00  0.00     0.210 C 
ENDBRANCH   8  15
BRANCH  10  17
HETATM   17  O4  UNK   900      23.104  -8.024   9.298  1.00  0.00    -0.360 OA
HETATM   18  H13 UNK   900      22.670  -7.544  10.024  1.00  0.00     0.217 HD
ENDBRANCH  10  17
TORSDOF 3
ENDMDL
MODEL 9
REMARK VINA RESULT:      -4.2     16.822     18.563
REMARK  3 active torsions:
REMARK  status: ('A' for Active; 'I' for Inactive)
REMARK    1  A    between atoms: O2_2  and  C1_5 
REMARK    2  A    between atoms: O3_3  and  C7_11 
REMARK    3  A    between atoms: O4_4  and  C9_13 
ROOT
HETATM    1  O1  UNK   900      -6.563  13.425  -2.215  1.00  0.00    -0.379 OA
HETATM    2  C1  UNK   900      -8.234  13.268  -3.968  1.00  0.00     0.181 C 
HETATM    3  C2  UNK   900      -6.789  12.957  -3.549  1.00  0.00     0.151 C 
HETATM    4  C3  UNK   900      -9.236  12.875  -2.916  1.00  0.00    -0.007 A 
HETATM    5  C4  UNK   900      -8.822  12.682  -1.588  1.00  0.00     0.008 A 
HETATM    6  C5  UNK   900      -7.367  12.791  -1.218  1.00  0.00     0.210 C 
HETATM    7  C6  UNK   900     -10.592  12.740  -3.244  1.00  0.00    -0.019 A 
HETATM    8  C7  UNK   900      -9.765  12.334  -0.613  1.00  0.00     0.080 A 
HETATM    9  C8  UNK   900      -6.413  11.484  -3.714  1.00  0.00     0.042 C 
HETATM   10  C9  UNK   900     -11.525  12.401  -2.265  1.00  0.00     0.074 A 
HETATM   11  C10 UNK   900     -11.112  12.196  -0.952  1.00  0.00     0.074 A 
HETATM   12  C11 UNK   900     -11.068  12.961  -4.646  1.00  0.00     0.052 C 
ENDROOT
BRANCH   2  13
HETATM   13  O2  UNK   900      -8.368  14.676  -4.163  1.00  0.00    -0.388 OA
HETATM   14  H12 UNK   900      -8.608  14.822  -5.093  1.00  0.00     0.210 HD
ENDBRANCH   2  13
BRANCH   8  15
HETATM   15  O3  UNK   900      -9.389  12.116   0.679  1.00  0.00    -0.355 OA
HETATM   16  C12 UNK   900      -9.706  13.134   1.626  1.00  0.00     0.210 C 
ENDBRANCH   8  15
BRANCH  10  17
HETATM   17  O4  UNK   900     -12.845  12.264  -2.573  1.00  0.00    -0.360 OA
HETATM   18  H13 UNK   900     -12.996  11.379  -2.946  1.00  0.00     0.217 HD
ENDBRANCH  10  17
TORSDOF 3
ENDMDL
