MODEL 1
REMARK VINA RESULT:      -5.8      0.000      0.000
REMARK  7 active torsions:
REMARK  status: ('A' for Active; 'I' for Inactive)
REMARK    1  A    between atoms: O1_1  and  C1_6 
REMARK    2  A    between atoms: O2_2  and  C2_7 
REMARK    3  A    between atoms: O3_3  and  C4_9 
REMARK    4  A    between atoms: O4_4  and  C11_16 
REMARK    5  A    between atoms: O5_5  and  C14_19 
REMARK    6  A    between atoms: C8_13  and  C11_16 
REMARK    7  A    between atoms: C11_16  and  C14_19 
ROOT
HETATM    1  C1  UNK   900     -15.442  -2.561  -4.580  1.00  0.00     0.095 C 
HETATM    2  C2  UNK   900     -15.784  -3.387  -5.852  1.00  0.00     0.119 C 
HETATM    3  C3  UNK   900     -14.203  -1.759  -5.070  1.00  0.00     0.019 C 
HETATM    4  C4  UNK   900     -16.853  -4.516  -5.740  1.00  0.00     0.088 C 
HETATM    5  C5  UNK   900     -15.160  -3.388  -3.304  1.00  0.00     0.049 C 
HETATM    6  C6  UNK   900     -14.393  -3.846  -6.347  1.00  0.00     0.044 C 
HETATM    7  C7  UNK   900     -13.401  -2.763  -5.903  1.00  0.00     0.010 C 
HETATM    8  C8  UNK   900     -16.405  -4.056  -2.697  1.00  0.00     0.025 C 
HETATM    9  C9  UNK   900     -16.482  -5.658  -4.772  1.00  0.00     0.041 C 
HETATM   10  C10 UNK   900     -16.714  -5.438  -3.278  1.00  0.00     0.011 C 
HETATM   11  C12 UNK   900     -13.353  -1.074  -4.007  1.00  0.00     0.013 C 
HETATM   12  C13 UNK   900     -17.140  -5.150  -7.119  1.00  0.00     0.049 C 
ENDROOT
BRANCH   8  13
HETATM   13  C11 UNK   900     -16.248  -4.186  -1.174  1.00  0.00     0.079 C 
HETATM   14  C15 UNK   900     -14.770  -4.154  -0.794  1.00  0.00     0.048 C 
BRANCH  13  15
HETATM   15  O4  UNK   900     -16.871  -3.052  -0.571  1.00  0.00    -0.388 OA
HETATM   16  H27 UNK   900     -16.173  -2.496  -0.181  1.00  0.00     0.210 HD
ENDBRANCH  13  15
BRANCH  13  17
HETATM   17  C14 UNK   900     -16.945  -5.457  -0.680  1.00  0.00     0.201 C 
BRANCH  17  18
HETATM   18  O5  UNK   900     -16.616  -5.700   0.684  1.00  0.00    -0.398 OA
HETATM   19  H28 UNK   900     -15.885  -6.342   0.692  1.00  0.00     0.209 HD
ENDBRANCH  17  18
ENDBRANCH  13  17
ENDBRANCH   8  13
BRANCH   1  20
HETATM   20  O1  UNK   900     -16.495  -1.636  -4.298  1.00  0.00    -0.386 OA
HETATM   21  H19 UNK   900     -16.107  -0.747  -4.248  1.00  0.00     0.210 HD
ENDBRANCH   1  20
BRANCH   2  22
HETATM   22  O2  UNK   900     -16.275  -2.432  -6.826  1.00  0.00    -0.384 OA
HETATM   23  H20 UNK   900     -15.848  -1.575  -6.663  1.00  0.00     0.210 HD
ENDBRANCH   2  22
BRANCH   4  24
HETATM   24  O3  UNK   900     -18.094  -3.949  -5.300  1.00  0.00    -0.387 OA
HETATM   25  H21 UNK   900     -17.918  -3.049  -4.975  1.00  0.00     0.210 HD
ENDBRANCH   4  24
TORSDOF 7
ENDMDL
MODEL 2
REMARK VINA RESULT:      -5.6     20.565     22.091
REMARK  7 active torsions:
REMARK  status: ('A' for Active; 'I' for Inactive)
REMARK    1  A    between atoms: O1_1  and  C1_6 
REMARK    2  A    between atoms: O2_2  and  C2_7 
REMARK    3  A    between atoms: O3_3  and  C4_9 
REMARK    4  A    between atoms: O4_4  and  C11_16 
REMARK    5  A    between atoms: O5_5  and  C14_19 
REMARK    6  A    between atoms: C8_13  and  C11_16 
REMARK    7  A    between atoms: C11_16  and  C14_19 
ROOT
HETATM    1  C1  UNK   900       5.819  -9.368  -1.595  1.00  0.00     0.095 C 
HETATM    2  C2  UNK   900       5.116  -8.936  -0.278  1.00  0.00     0.119 C 
HETATM    3  C3  UNK   900       6.516  -8.041  -2.009  1.00  0.00     0.019 C 
HETATM    4  C4  UNK   900       4.099  -9.919   0.379  1.00  0.00     0.088 C 
HETATM    5  C5  UNK   900       4.888  -9.930  -2.696  1.00  0.00     0.049 C 
HETATM    6  C6  UNK   900       4.546  -7.544  -0.634  1.00  0.00     0.044 C 
HETATM    7  C7  UNK   900       5.489  -6.952  -1.691  1.00  0.00     0.010 C 
HETATM    8  C8  UNK   900       4.317 -11.324  -2.388  1.00  0.00     0.025 C 
HETATM    9  C9  UNK   900       2.866 -10.243  -0.489  1.00  0.00     0.041 C 
HETATM   10  C10 UNK   900       3.015 -11.298  -1.584  1.00  0.00     0.011 C 
HETATM   11  C12 UNK   900       7.040  -7.947  -3.438  1.00  0.00     0.013 C 
HETATM   12  C13 UNK   900       3.587  -9.371   1.729  1.00  0.00     0.049 C 
ENDROOT
BRANCH   8  13
HETATM   13  C11 UNK   900       4.075 -12.098  -3.693  1.00  0.00     0.079 C 
HETATM   14  C15 UNK   900       5.186 -13.121  -3.910  1.00  0.00     0.048 C 
BRANCH  13  15
HETATM   15  O4  UNK   900       2.849 -12.818  -3.554  1.00  0.00    -0.388 OA
HETATM   16  H27 UNK   900       2.476 -12.613  -2.679  1.00  0.00     0.210 HD
ENDBRANCH  13  15
BRANCH  13  17
HETATM   17  C14 UNK   900       3.947 -11.123  -4.867  1.00  0.00     0.201 C 
BRANCH  17  18
HETATM   18  O5  UNK   900       2.576 -10.842  -5.126  1.00  0.00    -0.398 OA
HETATM   19  H28 UNK   900       2.423  -9.913  -4.882  1.00  0.00     0.209 HD
ENDBRANCH  17  18
ENDBRANCH  13  17
ENDBRANCH   8  13
BRANCH   1  20
HETATM   20  O1  UNK   900       6.829 -10.340  -1.316  1.00  0.00    -0.386 OA
HETATM   21  H19 UNK   900       7.682  -9.878  -1.258  1.00  0.00     0.210 HD
ENDBRANCH   1  20
BRANCH   2  22
HETATM   22  O2  UNK   900       6.176  -8.715   0.685  1.00  0.00    -0.384 OA
HETATM   23  H20 UNK   900       6.317  -7.758   0.778  1.00  0.00     0.210 HD
ENDBRANCH   2  22
BRANCH   4  24
HETATM   24  O3  UNK   900       4.764 -11.153   0.680  1.00  0.00    -0.387 OA
HETATM   25  H21 UNK   900       4.100 -11.785   1.005  1.00  0.00     0.210 HD
ENDBRANCH   4  24
TORSDOF 7
ENDMDL
MODEL 3
REMARK VINA RESULT:      -5.6      1.929      5.114
REMARK  7 active torsions:
REMARK  status: ('A' for Active; 'I' for Inactive)
REMARK    1  A    between atoms: O1_1  and  C1_6 
REMARK    2  A    between atoms: O2_2  and  C2_7 
REMARK    3  A    between atoms: O3_3  and  C4_9 
REMARK    4  A    between atoms: O4_4  and  C11_16 
REMARK    5  A    between atoms: O5_5  and  C14_19 
REMARK    6  A    between atoms: C8_13  and  C11_16 
REMARK    7  A    between atoms: C11_16  and  C14_19 
ROOT
HETATM    1  C1  UNK   900     -15.800  -5.927  -4.400  1.00  0.00     0.095 C 
HETATM    2  C2  UNK   900     -15.857  -6.341  -2.903  1.00  0.00     0.119 C 
HETATM    3  C3  UNK   900     -15.421  -7.279  -5.069  1.00  0.00     0.019 C 
HETATM    4  C4  UNK   900     -15.994  -5.221  -1.826  1.00  0.00     0.088 C 
HETATM    5  C5  UNK   900     -14.811  -4.787  -4.740  1.00  0.00     0.049 C 
HETATM    6  C6  UNK   900     -14.616  -7.250  -2.751  1.00  0.00     0.044 C 
HETATM    7  C7  UNK   900     -14.388  -7.898  -4.123  1.00  0.00     0.010 C 
HETATM    8  C8  UNK   900     -15.248  -3.401  -4.236  1.00  0.00     0.025 C 
HETATM    9  C9  UNK   900     -14.819  -4.224  -1.784  1.00  0.00     0.041 C 
HETATM   10  C10 UNK   900     -14.799  -3.090  -2.806  1.00  0.00     0.011 C 
HETATM   11  C12 UNK   900     -14.931  -7.228  -6.512  1.00  0.00     0.013 C 
HETATM   12  C13 UNK   900     -16.146  -5.823  -0.413  1.00  0.00     0.049 C 
ENDROOT
BRANCH   8  13
HETATM   13  C11 UNK   900     -14.713  -2.304  -5.170  1.00  0.00     0.079 C 
HETATM   14  C15 UNK   900     -13.495  -2.815  -5.935  1.00  0.00     0.048 C 
BRANCH  13  15
HETATM   15  O4  UNK   900     -15.730  -2.012  -6.129  1.00  0.00    -0.388 OA
HETATM   16  H27 UNK   900     -15.356  -2.148  -7.017  1.00  0.00     0.210 HD
ENDBRANCH  13  15
BRANCH  13  17
HETATM   17  C14 UNK   900     -14.405  -1.036  -4.369  1.00  0.00     0.201 C 
BRANCH  17  18
HETATM   18  O5  UNK   900     -14.171   0.057  -5.251  1.00  0.00    -0.398 OA
HETATM   19  H28 UNK   900     -13.364  -0.148  -5.753  1.00  0.00     0.209 HD
ENDBRANCH  17  18
ENDBRANCH  13  17
ENDBRANCH   8  13
BRANCH   1  20
HETATM   20  O1  UNK   900     -17.102  -5.548  -4.855  1.00  0.00    -0.386 OA
HETATM   21  H19 UNK   900     -17.749  -6.134  -4.429  1.00  0.00     0.210 HD
ENDBRANCH   1  20
BRANCH   2  22
HETATM   22  O2  UNK   900     -17.017  -7.200  -2.773  1.00  0.00    -0.384 OA
HETATM   23  H20 UNK   900     -17.593  -7.064  -3.543  1.00  0.00     0.210 HD
ENDBRANCH   2  22
BRANCH   4  24
HETATM   24  O3  UNK   900     -17.195  -4.478  -2.070  1.00  0.00    -0.387 OA
HETATM   25  H21 UNK   900     -17.650  -4.877  -2.832  1.00  0.00     0.210 HD
ENDBRANCH   4  24
TORSDOF 7
ENDMDL
MODEL 4
REMARK VINA RESULT:      -5.4     21.679     22.474
REMARK  7 active torsions:
REMARK  status: ('A' for Active; 'I' for Inactive)
REMARK    1  A    between atoms: O1_1  and  C1_6 
REMARK    2  A    between atoms: O2_2  and  C2_7 
REMARK    3  A    between atoms: O3_3  and  C4_9 
REMARK    4  A    between atoms: O4_4  and  C11_16 
REMARK    5  A    between atoms: O5_5  and  C14_19 
REMARK    6  A    between atoms: C8_13  and  C11_16 
REMARK    7  A    between atoms: C11_16  and  C14_19 
ROOT
HETATM    1  C1  UNK   900       5.200  -9.464  -1.761  1.00  0.00     0.095 C 
HETATM    2  C2  UNK   900       4.815 -10.714  -2.601  1.00  0.00     0.119 C 
HETATM    3  C3  UNK   900       5.829  -8.553  -2.854  1.00  0.00     0.019 C 
HETATM    4  C4  UNK   900       4.340 -11.996  -1.851  1.00  0.00     0.088 C 
HETATM    5  C5  UNK   900       6.153  -9.726  -0.572  1.00  0.00     0.049 C 
HETATM    6  C6  UNK   900       6.048 -10.907  -3.514  1.00  0.00     0.044 C 
HETATM    7  C7  UNK   900       6.647  -9.509  -3.726  1.00  0.00     0.010 C 
HETATM    8  C8  UNK   900       5.506 -10.480   0.602  1.00  0.00     0.025 C 
HETATM    9  C9  UNK   900       5.393 -12.618  -0.912  1.00  0.00     0.041 C 
HETATM   10  C10 UNK   900       5.573 -12.003   0.475  1.00  0.00     0.011 C 
HETATM   11  C12 UNK   900       6.645  -7.357  -2.377  1.00  0.00     0.013 C 
HETATM   12  C13 UNK   900       3.898 -13.092  -2.846  1.00  0.00     0.049 C 
ENDROOT
BRANCH   8  13
HETATM   13  C11 UNK   900       6.166 -10.067   1.927  1.00  0.00     0.079 C 
HETATM   14  C15 UNK   900       7.531 -10.735   2.064  1.00  0.00     0.048 C 
BRANCH  13  15
HETATM   15  O4  UNK   900       6.382  -8.655   1.886  1.00  0.00    -0.388 OA
HETATM   16  H27 UNK   900       6.982  -8.421   2.615  1.00  0.00     0.210 HD
ENDBRANCH  13  15
BRANCH  13  17
HETATM   17  C14 UNK   900       5.240 -10.395   3.101  1.00  0.00     0.201 C 
BRANCH  17  18
HETATM   18  O5  UNK   900       3.977  -9.762   2.922  1.00  0.00    -0.398 OA
HETATM   19  H28 UNK   900       3.313 -10.316   3.367  1.00  0.00     0.209 HD
ENDBRANCH  17  18
ENDBRANCH  13  17
ENDBRANCH   8  13
BRANCH   1  20
HETATM   20  O1  UNK   900       4.021  -8.824  -1.265  1.00  0.00    -0.386 OA
HETATM   21  H19 UNK   900       3.665  -9.371  -0.545  1.00  0.00     0.210 HD
ENDBRANCH   1  20
BRANCH   2  22
HETATM   22  O2  UNK   900       3.726 -10.296  -3.460  1.00  0.00    -0.384 OA
HETATM   23  H20 UNK   900       3.419  -9.421  -3.169  1.00  0.00     0.210 HD
ENDBRANCH   2  22
BRANCH   4  24
HETATM   24  O3  UNK   900       3.181 -11.682  -1.069  1.00  0.00    -0.387 OA
HETATM   25  H21 UNK   900       2.434 -12.206  -1.408  1.00  0.00     0.210 HD
ENDBRANCH   4  24
TORSDOF 7
ENDMDL
MODEL 5
REMARK VINA RESULT:      -5.4     38.023     39.468
REMARK  7 active torsions:
REMARK  status: ('A' for Active; 'I' for Inactive)
REMARK    1  A    between atoms: O1_1  and  C1_6 
REMARK    2  A    between atoms: O2_2  and  C2_7 
REMARK    3  A    between atoms: O3_3  and  C4_9 
REMARK    4  A    between atoms: O4_4  and  C11_16 
REMARK    5  A    between atoms: O5_5  and  C14_19 
REMARK    6  A    between atoms: C8_13  and  C11_16 
REMARK    7  A    between atoms: C11_16  and  C14_19 
ROOT
HETATM    1  C1  UNK   900      22.744  -4.549   3.570  1.00  0.00     0.095 C 
HETATM    2  C2  UNK   900      23.799  -5.561   3.042  1.00  0.00     0.119 C 
HETATM    3  C3  UNK   900      23.375  -3.201   3.121  1.00  0.00     0.019 C 
HETATM    4  C4  UNK   900      23.675  -7.056   3.471  1.00  0.00     0.088 C 
HETATM    5  C5  UNK   900      22.463  -4.609   5.089  1.00  0.00     0.049 C 
HETATM    6  C6  UNK   900      25.139  -4.882   3.409  1.00  0.00     0.044 C 
HETATM    7  C7  UNK   900      24.873  -3.371   3.388  1.00  0.00     0.010 C 
HETATM    8  C8  UNK   900      21.685  -5.857   5.539  1.00  0.00     0.025 C 
HETATM    9  C9  UNK   900      23.803  -7.301   4.987  1.00  0.00     0.041 C 
HETATM   10  C10 UNK   900      22.574  -7.060   5.862  1.00  0.00     0.011 C 
HETATM   11  C12 UNK   900      22.814  -1.928   3.746  1.00  0.00     0.013 C 
HETATM   12  C13 UNK   900      24.738  -7.927   2.766  1.00  0.00     0.049 C 
ENDROOT
BRANCH   8  13
HETATM   13  C11 UNK   900      20.828  -5.532   6.772  1.00  0.00     0.079 C 
HETATM   14  C15 UNK   900      21.307  -4.235   7.417  1.00  0.00     0.048 C 
BRANCH  13  15
HETATM   15  O4  UNK   900      19.486  -5.322   6.330  1.00  0.00    -0.388 OA
HETATM   16  H27 UNK   900      19.464  -4.497   5.815  1.00  0.00     0.210 HD
ENDBRANCH  13  15
BRANCH  13  17
HETATM   17  C14 UNK   900      20.850  -6.709   7.752  1.00  0.00     0.201 C 
BRANCH  17  18
HETATM   18  O5  UNK   900      19.586  -6.836   8.396  1.00  0.00    -0.398 OA
HETATM   19  H28 UNK   900      19.241  -7.718   8.177  1.00  0.00     0.209 HD
ENDBRANCH  17  18
ENDBRANCH  13  17
ENDBRANCH   8  13
BRANCH   1  20
HETATM   20  O1  UNK   900      21.507  -4.722   2.872  1.00  0.00    -0.386 OA
HETATM   21  H19 UNK   900      21.001  -3.897   2.951  1.00  0.00     0.210 HD
ENDBRANCH   1  20
BRANCH   2  22
HETATM   22  O2  UNK   900      23.699  -5.524   1.597  1.00  0.00    -0.384 OA
HETATM   23  H20 UNK   900      24.551  -5.231   1.234  1.00  0.00     0.210 HD
ENDBRANCH   2  22
BRANCH   4  24
HETATM   24  O3  UNK   900      22.404  -7.564   3.046  1.00  0.00    -0.387 OA
HETATM   25  H21 UNK   900      22.185  -8.334   3.598  1.00  0.00     0.210 HD
ENDBRANCH   4  24
TORSDOF 7
ENDMDL
MODEL 6
REMARK VINA RESULT:      -5.2     39.257     40.755
REMARK  7 active torsions:
REMARK  status: ('A' for Active; 'I' for Inactive)
REMARK    1  A    between atoms: O1_1  and  C1_6 
REMARK    2  A    between atoms: O2_2  and  C2_7 
REMARK    3  A    between atoms: O3_3  and  C4_9 
REMARK    4  A    between atoms: O4_4  and  C11_16 
REMARK    5  A    between atoms: O5_5  and  C14_19 
REMARK    6  A    between atoms: C8_13  and  C11_16 
REMARK    7  A    between atoms: C11_16  and  C14_19 
ROOT
HETATM    1  C1  UNK   900      22.964  -4.060   3.831  1.00  0.00     0.095 C 
HETATM    2  C2  UNK   900      23.315  -3.006   2.744  1.00  0.00     0.119 C 
HETATM    3  C3  UNK   900      22.489  -3.142   4.993  1.00  0.00     0.019 C 
HETATM    4  C4  UNK   900      24.053  -3.484   1.456  1.00  0.00     0.088 C 
HETATM    5  C5  UNK   900      24.117  -5.006   4.242  1.00  0.00     0.049 C 
HETATM    6  C6  UNK   900      24.048  -1.911   3.553  1.00  0.00     0.044 C 
HETATM    7  C7  UNK   900      23.462  -1.960   4.970  1.00  0.00     0.010 C 
HETATM    8  C8  UNK   900      24.494  -6.043   3.170  1.00  0.00     0.025 C 
HETATM    9  C9  UNK   900      25.450  -4.090   1.704  1.00  0.00     0.041 C 
HETATM   10  C10 UNK   900      25.533  -5.544   2.162  1.00  0.00     0.011 C 
HETATM   11  C12 UNK   900      22.374  -3.773   6.376  1.00  0.00     0.013 C 
HETATM   12  C13 UNK   900      24.219  -2.327   0.447  1.00  0.00     0.049 C 
ENDROOT
BRANCH   8  13
HETATM   13  C11 UNK   900      25.027  -7.322   3.834  1.00  0.00     0.079 C 
HETATM   14  C15 UNK   900      24.903  -7.216   5.352  1.00  0.00     0.048 C 
BRANCH  13  15
HETATM   15  O4  UNK   900      24.203  -8.410   3.411  1.00  0.00    -0.388 OA
HETATM   16  H27 UNK   900      23.321  -8.057   3.201  1.00  0.00     0.210 HD
ENDBRANCH  13  15
BRANCH  13  17
HETATM   17  C14 UNK   900      26.467  -7.586   3.387  1.00  0.00     0.201 C 
BRANCH  17  18
HETATM   18  O5  UNK   900      26.765  -8.975   3.482  1.00  0.00    -0.398 OA
HETATM   19  H28 UNK   900      26.157  -9.354   4.140  1.00  0.00     0.209 HD
ENDBRANCH  17  18
ENDBRANCH  13  17
ENDBRANCH   8  13
BRANCH   1  20
HETATM   20  O1  UNK   900      21.855  -4.856   3.404  1.00  0.00    -0.386 OA
HETATM   21  H19 UNK   900      21.697  -5.536   4.079  1.00  0.00     0.210 HD
ENDBRANCH   1  20
BRANCH   2  22
HETATM   22  O2  UNK   900      22.052  -2.434   2.322  1.00  0.00    -0.384 OA
HETATM   23  H20 UNK   900      21.771  -1.781   2.984  1.00  0.00     0.210 HD
ENDBRANCH   2  22
BRANCH   4  24
HETATM   24  O3  UNK   900      23.254  -4.473   0.795  1.00  0.00    -0.387 OA
HETATM   25  H21 UNK   900      23.000  -4.125  -0.077  1.00  0.00     0.210 HD
ENDBRANCH   4  24
TORSDOF 7
ENDMDL
MODEL 7
REMARK VINA RESULT:      -5.2     12.371     15.935
REMARK  7 active torsions:
REMARK  status: ('A' for Active; 'I' for Inactive)
REMARK    1  A    between atoms: O1_1  and  C1_6 
REMARK    2  A    between atoms: O2_2  and  C2_7 
REMARK    3  A    between atoms: O3_3  and  C4_9 
REMARK    4  A    between atoms: O4_4  and  C11_16 
REMARK    5  A    between atoms: O5_5  and  C14_19 
REMARK    6  A    between atoms: C8_13  and  C11_16 
REMARK    7  A    between atoms: C11_16  and  C14_19 
ROOT
HETATM    1  C1  UNK   900      -7.863  -8.562   9.724  1.00  0.00     0.095 C 
HETATM    2  C2  UNK   900      -7.569 -10.068   9.476  1.00  0.00     0.119 C 
HETATM    3  C3  UNK   900      -7.883  -8.515  11.278  1.00  0.00     0.019 C 
HETATM    4  C4  UNK   900      -7.680 -10.617   8.020  1.00  0.00     0.088 C 
HETATM    5  C5  UNK   900      -9.165  -8.022   9.087  1.00  0.00     0.049 C 
HETATM    6  C6  UNK   900      -8.475 -10.770  10.513  1.00  0.00     0.044 C 
HETATM    7  C7  UNK   900      -8.611  -9.796  11.692  1.00  0.00     0.010 C 
HETATM    8  C8  UNK   900      -9.113  -7.895   7.555  1.00  0.00     0.025 C 
HETATM    9  C9  UNK   900      -9.089 -10.513   7.401  1.00  0.00     0.041 C 
HETATM   10  C10 UNK   900      -9.519  -9.171   6.813  1.00  0.00     0.011 C 
HETATM   11  C12 UNK   900      -8.478  -7.271  11.929  1.00  0.00     0.013 C 
HETATM   12  C13 UNK   900      -7.248 -12.098   7.949  1.00  0.00     0.049 C 
ENDROOT
BRANCH   8  13
HETATM   13  C11 UNK   900     -10.017  -6.744   7.088  1.00  0.00     0.079 C 
HETATM   14  C15 UNK   900     -11.229  -6.621   8.007  1.00  0.00     0.048 C 
BRANCH  13  15
HETATM   15  O4  UNK   900      -9.271  -5.531   7.195  1.00  0.00    -0.388 OA
HETATM   16  H27 UNK   900      -9.300  -5.241   8.124  1.00  0.00     0.210 HD
ENDBRANCH  13  15
BRANCH  13  17
HETATM   17  C14 UNK   900     -10.419  -6.952   5.625  1.00  0.00     0.201 C 
BRANCH  17  18
HETATM   18  O5  UNK   900     -10.402  -5.710   4.929  1.00  0.00    -0.398 OA
HETATM   19  H28 UNK   900     -10.864  -5.063   5.488  1.00  0.00     0.209 HD
ENDBRANCH  17  18
ENDBRANCH  13  17
ENDBRANCH   8  13
BRANCH   1  20
HETATM   20  O1  UNK   900      -6.768  -7.766   9.263  1.00  0.00    -0.386 OA
HETATM   21  H19 UNK   900      -6.135  -7.676   9.993  1.00  0.00     0.210 HD
ENDBRANCH   1  20
BRANCH   2  22
HETATM   22  O2  UNK   900      -6.203 -10.282   9.907  1.00  0.00    -0.384 OA
HETATM   23  H20 UNK   900      -5.690 -10.627   9.157  1.00  0.00     0.210 HD
ENDBRANCH   2  22
BRANCH   4  24
HETATM   24  O3  UNK   900      -6.772  -9.899   7.175  1.00  0.00    -0.387 OA
HETATM   25  H21 UNK   900      -6.808 -10.293   6.287  1.00  0.00     0.210 HD
ENDBRANCH   4  24
TORSDOF 7
ENDMDL
MODEL 8
REMARK VINA RESULT:      -5.2     20.963     22.288
REMARK  7 active torsions:
REMARK  status: ('A' for Active; 'I' for Inactive)
REMARK    1  A    between atoms: O1_1  and  C1_6 
REMARK    2  A    between atoms: O2_2  and  C2_7 
REMARK    3  A    between atoms: O3_3  and  C4_9 
REMARK    4  A    between atoms: O4_4  and  C11_16 
REMARK    5  A    between atoms: O5_5  and  C14_19 
REMARK    6  A    between atoms: C8_13  and  C11_16 
REMARK    7  A    between atoms: C11_16  and  C14_19 
ROOT
HETATM    1  C1  UNK   900       5.487 -10.902  -0.756  1.00  0.00     0.095 C 
HETATM    2  C2  UNK   900       4.705  -9.881  -1.628  1.00  0.00     0.119 C 
HETATM    3  C3  UNK   900       5.552 -12.124  -1.715  1.00  0.00     0.019 C 
HETATM    4  C4  UNK   900       4.213  -8.558  -0.964  1.00  0.00     0.088 C 
HETATM    5  C5  UNK   900       4.847 -11.240   0.611  1.00  0.00     0.049 C 
HETATM    6  C6  UNK   900       3.594 -10.750  -2.261  1.00  0.00     0.044 C 
HETATM    7  C7  UNK   900       4.171 -12.167  -2.377  1.00  0.00     0.010 C 
HETATM    8  C8  UNK   900       4.922 -10.102   1.642  1.00  0.00     0.025 C 
HETATM    9  C9  UNK   900       3.206  -8.753   0.187  1.00  0.00     0.041 C 
HETATM   10  C10 UNK   900       3.752  -9.118   1.566  1.00  0.00     0.011 C 
HETATM   11  C12 UNK   900       5.947 -13.465  -1.108  1.00  0.00     0.013 C 
HETATM   12  C13 UNK   900       3.557  -7.623  -2.003  1.00  0.00     0.049 C 
ENDROOT
BRANCH   8  13
HETATM   13  C11 UNK   900       4.990 -10.678   3.064  1.00  0.00     0.079 C 
HETATM   14  C15 UNK   900       5.316 -12.169   3.012  1.00  0.00     0.048 C 
BRANCH  13  15
HETATM   15  O4  UNK   900       6.061 -10.029   3.749  1.00  0.00    -0.388 OA
HETATM   16  H27 UNK   900       6.788  -9.897   3.116  1.00  0.00     0.210 HD
ENDBRANCH  13  15
BRANCH  13  17
HETATM   17  C14 UNK   900       3.681 -10.397   3.809  1.00  0.00     0.201 C 
BRANCH  17  18
HETATM   18  O5  UNK   900       3.949  -9.735   5.040  1.00  0.00    -0.398 OA
HETATM   19  H28 UNK   900       4.729  -9.172   4.899  1.00  0.00     0.209 HD
ENDBRANCH  17  18
ENDBRANCH  13  17
ENDBRANCH   8  13
BRANCH   1  20
HETATM   20  O1  UNK   900       6.820 -10.435  -0.530  1.00  0.00    -0.386 OA
HETATM   21  H19 UNK   900       7.018 -10.541   0.415  1.00  0.00     0.210 HD
ENDBRANCH   1  20
BRANCH   2  22
HETATM   22  O2  UNK   900       5.601  -9.508  -2.704  1.00  0.00    -0.384 OA
HETATM   23  H20 UNK   900       6.349 -10.128  -2.714  1.00  0.00     0.210 HD
ENDBRANCH   2  22
BRANCH   4  24
HETATM   24  O3  UNK   900       5.343  -7.843  -0.447  1.00  0.00    -0.387 OA
HETATM   25  H21 UNK   900       5.978  -8.491  -0.096  1.00  0.00     0.210 HD
ENDBRANCH   4  24
TORSDOF 7
ENDMDL
MODEL 9
REMARK VINA RESULT:      -5.1     25.921     27.629
REMARK  7 active torsions:
REMARK  status: ('A' for Active; 'I' for Inactive)
REMARK    1  A    between atoms: O1_1  and  C1_6 
REMARK    2  A    between atoms: O2_2  and  C2_7 
REMARK    3  A    between atoms: O3_3  and  C4_9 
REMARK    4  A    between atoms: O4_4  and  C11_16 
REMARK    5  A    between atoms: O5_5  and  C14_19 
REMARK    6  A    between atoms: C8_13  and  C11_16 
REMARK    7  A    between atoms: C11_16  and  C14_19 
ROOT
HETATM    1  C1  UNK   900      10.365  -6.523  -5.515  1.00  0.00     0.095 C 
HETATM    2  C2  UNK   900      10.546  -5.915  -6.934  1.00  0.00     0.119 C 
HETATM    3  C3  UNK   900       8.833  -6.796  -5.501  1.00  0.00     0.019 C 
HETATM    4  C4  UNK   900      11.923  -5.282  -7.301  1.00  0.00     0.088 C 
HETATM    5  C5  UNK   900      10.829  -5.630  -4.342  1.00  0.00     0.049 C 
HETATM    6  C6  UNK   900       9.333  -4.965  -7.057  1.00  0.00     0.044 C 
HETATM    7  C7  UNK   900       8.221  -5.575  -6.193  1.00  0.00     0.010 C 
HETATM    8  C8  UNK   900      12.356  -5.482  -4.227  1.00  0.00     0.025 C 
HETATM    9  C9  UNK   900      12.323  -4.070  -6.437  1.00  0.00     0.041 C 
HETATM   10  C10 UNK   900      12.933  -4.336  -5.062  1.00  0.00     0.011 C 
HETATM   11  C12 UNK   900       8.190  -7.082  -4.149  1.00  0.00     0.013 C 
HETATM   12  C13 UNK   900      11.953  -4.832  -8.778  1.00  0.00     0.049 C 
ENDROOT
BRANCH   8  13
HETATM   13  C11 UNK   900      12.761  -5.274  -2.760  1.00  0.00     0.079 C 
HETATM   14  C15 UNK   900      13.488  -3.942  -2.599  1.00  0.00     0.048 C 
BRANCH  13  15
HETATM   15  O4  UNK   900      11.565  -5.207  -1.981  1.00  0.00    -0.388 OA
HETATM   16  H27 UNK   900      10.817  -5.075  -2.589  1.00  0.00     0.210 HD
ENDBRANCH  13  15
BRANCH  13  17
HETATM   17  C14 UNK   900      13.603  -6.457  -2.275  1.00  0.00     0.201 C 
BRANCH  17  18
HETATM   18  O5  UNK   900      14.582  -6.013  -1.340  1.00  0.00    -0.398 OA
HETATM   19  H28 UNK   900      15.276  -6.694  -1.308  1.00  0.00     0.209 HD
ENDBRANCH  17  18
ENDBRANCH  13  17
ENDBRANCH   8  13
BRANCH   1  20
HETATM   20  O1  UNK   900      11.046  -7.778  -5.428  1.00  0.00    -0.386 OA
HETATM   21  H19 UNK   900      10.433  -8.472  -5.720  1.00  0.00     0.210 HD
ENDBRANCH   1  20
BRANCH   2  22
HETATM   22  O2  UNK   900      10.316  -7.002  -7.865  1.00  0.00    -0.384 OA
HETATM   23  H20 UNK   900       9.611  -6.741  -8.479  1.00  0.00     0.210 HD
ENDBRANCH   2  22
BRANCH   4  24
HETATM   24  O3  UNK   900      12.948  -6.276  -7.170  1.00  0.00    -0.387 OA
HETATM   25  H21 UNK   900      13.348  -6.185  -6.288  1.00  0.00     0.210 HD
ENDBRANCH   4  24
TORSDOF 7
ENDMDL
