MODEL 1
REMARK VINA RESULT:      -5.0      0.000      0.000
REMARK  2 active torsions:
REMARK  status: ('A' for Active; 'I' for Inactive)
REMARK    1  A    between atoms: O1_1  and  C12_14 
REMARK    2  A    between atoms: C4_6  and  C12_14 
ROOT
HETATM    1  O2  UNK   900       8.323   4.129  13.914  1.00  0.00    -0.292 OA
HETATM    2  C1  UNK   900       5.132   4.257  12.288  1.00  0.00    -0.000 C 
HETATM    3  C2  UNK   900       4.719   2.846  11.745  1.00  0.00     0.010 C 
HETATM    4  C3  UNK   900       6.675   4.347  12.124  1.00  0.00     0.033 C 
HETATM    5  C4  UNK   900       6.017   2.043  11.490  1.00  0.00    -0.017 C 
HETATM    6  C5  UNK   900       4.280   5.271  11.472  1.00  0.00    -0.005 C 
HETATM    7  C6  UNK   900       7.084   3.135  11.272  1.00  0.00     0.030 C 
HETATM    8  C7  UNK   900       3.832   3.148  10.530  1.00  0.00     0.007 C 
HETATM    9  C8  UNK   900       3.124   4.432  10.927  1.00  0.00     0.006 C 
HETATM   10  C9  UNK   900       4.935   4.325  13.784  1.00  0.00    -0.011 C 
HETATM   11  C10 UNK   900       7.158   4.251  13.562  1.00  0.00     0.158 C 
HETATM   12  C11 UNK   900       7.256   5.647  11.559  1.00  0.00     0.025 C 
HETATM   13  C13 UNK   900       6.359   1.161  12.710  1.00  0.00     0.018 C 
HETATM   14  C14 UNK   900       6.048   4.340  14.519  1.00  0.00     0.048 C 
HETATM   15  C15 UNK   900       3.790   6.516  12.202  1.00  0.00     0.011 C 
ENDROOT
BRANCH   5  16
HETATM   16  C12 UNK   900       5.946   1.104  10.275  1.00  0.00     0.173 C 
BRANCH  16  17
HETATM   17  O1  UNK   900       5.256  -0.065  10.663  1.00  0.00    -0.400 OA
HETATM   18  H22 UNK   900       4.305   0.131  10.616  1.00  0.00     0.209 HD
ENDBRANCH  16  17
ENDBRANCH   5  16
TORSDOF 2
ENDMDL
MODEL 2
REMARK VINA RESULT:      -5.0      1.761      3.342
REMARK  2 active torsions:
REMARK  status: ('A' for Active; 'I' for Inactive)
REMARK    1  A    between atoms: O1_1  and  C12_14 
REMARK    2  A    between atoms: C4_6  and  C12_14 
ROOT
HETATM    1  O2  UNK   900       2.611   5.183  13.490  1.00  0.00    -0.292 OA
HETATM    2  C1  UNK   900       5.922   4.900  12.147  1.00  0.00    -0.000 C 
HETATM    3  C2  UNK   900       6.000   3.757  11.077  1.00  0.00     0.010 C 
HETATM    4  C3  UNK   900       4.914   4.413  13.225  1.00  0.00     0.033 C 
HETATM    5  C4  UNK   900       4.888   2.732  11.403  1.00  0.00    -0.017 C 
HETATM    6  C5  UNK   900       7.390   5.124  12.610  1.00  0.00    -0.005 C 
HETATM    7  C6  UNK   900       4.637   2.933  12.912  1.00  0.00     0.030 C 
HETATM    8  C7  UNK   900       7.450   3.263  11.150  1.00  0.00     0.007 C 
HETATM    9  C8  UNK   900       8.231   4.524  11.482  1.00  0.00     0.006 C 
HETATM   10  C9  UNK   900       5.248   6.121  11.566  1.00  0.00    -0.011 C 
HETATM   11  C10 UNK   900       3.711   5.306  12.971  1.00  0.00     0.158 C 
HETATM   12  C11 UNK   900       5.295   4.608  14.696  1.00  0.00     0.025 C 
HETATM   13  C13 UNK   900       3.616   3.029  10.580  1.00  0.00     0.018 C 
HETATM   14  C14 UNK   900       4.021   6.381  12.020  1.00  0.00     0.048 C 
HETATM   15  C15 UNK   900       7.807   6.553  12.937  1.00  0.00     0.011 C 
ENDROOT
BRANCH   5  16
HETATM   16  C12 UNK   900       5.272   1.273  11.107  1.00  0.00     0.173 C 
BRANCH  16  17
HETATM   17  O1  UNK   900       4.893   0.980   9.778  1.00  0.00    -0.400 OA
HETATM   18  H22 UNK   900       3.949   1.195   9.693  1.00  0.00     0.209 HD
ENDBRANCH  16  17
ENDBRANCH   5  16
TORSDOF 2
ENDMDL
MODEL 3
REMARK VINA RESULT:      -4.8     26.328     28.664
REMARK  2 active torsions:
REMARK  status: ('A' for Active; 'I' for Inactive)
REMARK    1  A    between atoms: O1_1  and  C12_14 
REMARK    2  A    between atoms: C4_6  and  C12_14 
ROOT
HETATM    1  O2  UNK   900     -17.093  -6.631  -6.954  1.00  0.00    -0.292 OA
HETATM    2  C1  UNK   900     -15.949  -5.261  -3.847  1.00  0.00    -0.000 C 
HETATM    3  C2  UNK   900     -15.561  -3.751  -4.005  1.00  0.00     0.010 C 
HETATM    4  C3  UNK   900     -15.555  -5.950  -5.184  1.00  0.00     0.033 C 
HETATM    5  C4  UNK   900     -15.169  -3.520  -5.484  1.00  0.00    -0.017 C 
HETATM    6  C5  UNK   900     -15.205  -5.739  -2.567  1.00  0.00    -0.005 C 
HETATM    7  C6  UNK   900     -14.729  -4.917  -5.967  1.00  0.00     0.030 C 
HETATM    8  C7  UNK   900     -14.474  -3.522  -2.948  1.00  0.00     0.007 C 
HETATM    9  C8  UNK   900     -14.890  -4.445  -1.816  1.00  0.00     0.006 C 
HETATM   10  C9  UNK   900     -17.450  -5.419  -3.802  1.00  0.00    -0.011 C 
HETATM   11  C10 UNK   900     -16.909  -6.227  -5.815  1.00  0.00     0.158 C 
HETATM   12  C11 UNK   900     -14.830  -7.297  -5.104  1.00  0.00     0.025 C 
HETATM   13  C13 UNK   900     -16.378  -3.002  -6.292  1.00  0.00     0.018 C 
HETATM   14  C14 UNK   900     -18.011  -5.970  -4.879  1.00  0.00     0.048 C 
HETATM   15  C15 UNK   900     -15.920  -6.755  -1.684  1.00  0.00     0.011 C 
ENDROOT
BRANCH   5  16
HETATM   16  C12 UNK   900     -14.039  -2.496  -5.681  1.00  0.00     0.173 C 
BRANCH  16  17
HETATM   17  O1  UNK   900     -14.590  -1.203  -5.556  1.00  0.00    -0.400 OA
HETATM   18  H22 UNK   900     -13.868  -0.603  -5.304  1.00  0.00     0.209 HD
ENDBRANCH  16  17
ENDBRANCH   5  16
TORSDOF 2
ENDMDL
MODEL 4
REMARK VINA RESULT:      -4.8     18.450     20.766
REMARK  2 active torsions:
REMARK  status: ('A' for Active; 'I' for Inactive)
REMARK    1  A    between atoms: O1_1  and  C12_14 
REMARK    2  A    between atoms: C4_6  and  C12_14 
ROOT
HETATM    1  O2  UNK   900      -9.508 -11.845   5.187  1.00  0.00    -0.292 OA
HETATM    2  C1  UNK   900     -10.017  -8.307   5.456  1.00  0.00    -0.000 C 
HETATM    3  C2  UNK   900      -8.933  -7.650   6.377  1.00  0.00     0.010 C 
HETATM    4  C3  UNK   900     -10.307  -9.709   6.063  1.00  0.00     0.033 C 
HETATM    5  C4  UNK   900      -8.432  -8.735   7.360  1.00  0.00    -0.017 C 
HETATM    6  C5  UNK   900     -11.198  -7.295   5.433  1.00  0.00    -0.005 C 
HETATM    7  C6  UNK   900      -9.606  -9.733   7.430  1.00  0.00     0.030 C 
HETATM    8  C7  UNK   900      -9.634  -6.428   6.982  1.00  0.00     0.007 C 
HETATM    9  C8  UNK   900     -10.563  -5.974   5.869  1.00  0.00     0.006 C 
HETATM   10  C9  UNK   900      -9.433  -8.628   4.100  1.00  0.00    -0.011 C 
HETATM   11  C10 UNK   900      -9.660 -10.639   5.050  1.00  0.00     0.158 C 
HETATM   12  C11 UNK   900     -11.770 -10.145   6.179  1.00  0.00     0.025 C 
HETATM   13  C13 UNK   900      -7.154  -9.412   6.817  1.00  0.00     0.018 C 
HETATM   14  C14 UNK   900      -9.239  -9.922   3.840  1.00  0.00     0.048 C 
HETATM   15  C15 UNK   900     -11.972  -7.156   4.128  1.00  0.00     0.011 C 
ENDROOT
BRANCH   5  16
HETATM   16  C12 UNK   900      -8.086  -8.203   8.760  1.00  0.00     0.173 C 
BRANCH  16  17
HETATM   17  O1  UNK   900      -6.810  -7.601   8.699  1.00  0.00    -0.400 OA
HETATM   18  H22 UNK   900      -6.717  -7.040   9.486  1.00  0.00     0.209 HD
ENDBRANCH  16  17
ENDBRANCH   5  16
TORSDOF 2
ENDMDL
MODEL 5
REMARK VINA RESULT:      -4.7     12.448     15.005
REMARK  2 active torsions:
REMARK  status: ('A' for Active; 'I' for Inactive)
REMARK    1  A    between atoms: O1_1  and  C12_14 
REMARK    2  A    between atoms: C4_6  and  C12_14 
ROOT
HETATM    1  O2  UNK   900      -7.816  13.634  10.120  1.00  0.00    -0.292 OA
HETATM    2  C1  UNK   900      -5.347  12.878   7.635  1.00  0.00    -0.000 C 
HETATM    3  C2  UNK   900      -4.200  11.991   8.230  1.00  0.00     0.010 C 
HETATM    4  C3  UNK   900      -5.787  13.838   8.776  1.00  0.00     0.033 C 
HETATM    5  C4  UNK   900      -4.136  12.266   9.752  1.00  0.00    -0.017 C 
HETATM    6  C5  UNK   900      -4.734  13.534   6.365  1.00  0.00    -0.005 C 
HETATM    7  C6  UNK   900      -4.742  13.678   9.893  1.00  0.00     0.030 C 
HETATM    8  C7  UNK   900      -2.964  12.355   7.400  1.00  0.00     0.007 C 
HETATM    9  C8  UNK   900      -3.540  12.640   6.024  1.00  0.00     0.006 C 
HETATM   10  C9  UNK   900      -6.582  12.046   7.384  1.00  0.00    -0.011 C 
HETATM   11  C10 UNK   900      -7.149  13.283   9.157  1.00  0.00     0.158 C 
HETATM   12  C11 UNK   900      -6.002  15.312   8.423  1.00  0.00     0.025 C 
HETATM   13  C13 UNK   900      -4.965  11.221  10.529  1.00  0.00     0.018 C 
HETATM   14  C14 UNK   900      -7.609  12.262   8.207  1.00  0.00     0.048 C 
HETATM   15  C15 UNK   900      -5.658  13.737   5.170  1.00  0.00     0.011 C 
ENDROOT
BRANCH   5  16
HETATM   16  C12 UNK   900      -2.715  12.225  10.338  1.00  0.00     0.173 C 
BRANCH  16  17
HETATM   17  O1  UNK   900      -2.371  10.873  10.561  1.00  0.00    -0.400 OA
HETATM   18  H22 UNK   900      -2.218  10.767  11.515  1.00  0.00     0.209 HD
ENDBRANCH  16  17
ENDBRANCH   5  16
TORSDOF 2
ENDMDL
MODEL 6
REMARK VINA RESULT:      -4.6     13.458     15.365
REMARK  2 active torsions:
REMARK  status: ('A' for Active; 'I' for Inactive)
REMARK    1  A    between atoms: O1_1  and  C12_14 
REMARK    2  A    between atoms: C4_6  and  C12_14 
ROOT
HETATM    1  O2  UNK   900      -5.217  14.749   5.257  1.00  0.00    -0.292 OA
HETATM    2  C1  UNK   900      -4.139  13.040   8.217  1.00  0.00    -0.000 C 
HETATM    3  C2  UNK   900      -5.221  12.015   8.702  1.00  0.00     0.010 C 
HETATM    4  C3  UNK   900      -4.922  14.248   7.629  1.00  0.00     0.033 C 
HETATM    5  C4  UNK   900      -6.596  12.510   8.195  1.00  0.00    -0.017 C 
HETATM    6  C5  UNK   900      -3.255  13.319   9.467  1.00  0.00    -0.005 C 
HETATM    7  C6  UNK   900      -6.394  14.028   8.013  1.00  0.00     0.030 C 
HETATM    8  C7  UNK   900      -5.022  11.938  10.221  1.00  0.00     0.007 C 
HETATM    9  C8  UNK   900      -3.523  12.126  10.385  1.00  0.00     0.006 C 
HETATM   10  C9  UNK   900      -3.392  12.494   7.023  1.00  0.00    -0.011 C 
HETATM   11  C10 UNK   900      -4.671  14.100   6.138  1.00  0.00     0.158 C 
HETATM   12  C11 UNK   900      -4.451  15.655   8.011  1.00  0.00     0.025 C 
HETATM   13  C13 UNK   900      -6.959  11.830   6.857  1.00  0.00     0.018 C 
HETATM   14  C14 UNK   900      -3.656  13.077   5.853  1.00  0.00     0.048 C 
HETATM   15  C15 UNK   900      -1.766  13.539   9.232  1.00  0.00     0.011 C 
ENDROOT
BRANCH   5  16
HETATM   16  C12 UNK   900      -7.760  12.229   9.159  1.00  0.00     0.173 C 
BRANCH  16  17
HETATM   17  O1  UNK   900      -8.872  11.811   8.396  1.00  0.00    -0.400 OA
HETATM   18  H22 UNK   900      -9.365  11.166   8.932  1.00  0.00     0.209 HD
ENDBRANCH  16  17
ENDBRANCH   5  16
TORSDOF 2
ENDMDL
MODEL 7
REMARK VINA RESULT:      -4.6     18.906     20.773
REMARK  2 active torsions:
REMARK  status: ('A' for Active; 'I' for Inactive)
REMARK    1  A    between atoms: O1_1  and  C12_14 
REMARK    2  A    between atoms: C4_6  and  C12_14 
ROOT
HETATM    1  O2  UNK   900      -8.677 -12.526   3.946  1.00  0.00    -0.292 OA
HETATM    2  C1  UNK   900      -8.666  -9.474   5.824  1.00  0.00    -0.000 C 
HETATM    3  C2  UNK   900      -7.532  -9.482   6.906  1.00  0.00     0.010 C 
HETATM    4  C3  UNK   900      -9.183 -10.938   5.731  1.00  0.00     0.033 C 
HETATM    5  C4  UNK   900      -7.235 -10.958   7.263  1.00  0.00    -0.017 C 
HETATM    6  C5  UNK   900      -9.683  -8.402   6.310  1.00  0.00    -0.005 C 
HETATM    7  C6  UNK   900      -8.545 -11.690   6.910  1.00  0.00     0.030 C 
HETATM    8  C7  UNK   900      -8.067  -8.585   8.028  1.00  0.00     0.007 C 
HETATM    9  C8  UNK   900      -8.876  -7.538   7.281  1.00  0.00     0.006 C 
HETATM   10  C9  UNK   900      -8.085  -9.221   4.453  1.00  0.00    -0.011 C 
HETATM   11  C10 UNK   900      -8.643 -11.385   4.382  1.00  0.00     0.158 C 
HETATM   12  C11 UNK   900     -10.698 -11.156   5.685  1.00  0.00     0.025 C 
HETATM   13  C13 UNK   900      -6.052 -11.492   6.427  1.00  0.00     0.018 C 
HETATM   14  C14 UNK   900      -8.075 -10.264   3.622  1.00  0.00     0.048 C 
HETATM   15  C15 UNK   900     -10.378  -7.567   5.242  1.00  0.00     0.011 C 
ENDROOT
BRANCH   5  16
HETATM   16  C12 UNK   900      -6.867 -11.186   8.739  1.00  0.00     0.173 C 
BRANCH  16  17
HETATM   17  O1  UNK   900      -5.495 -11.514   8.804  1.00  0.00    -0.400 OA
HETATM   18  H22 UNK   900      -5.073 -11.149   8.009  1.00  0.00     0.209 HD
ENDBRANCH  16  17
ENDBRANCH   5  16
TORSDOF 2
ENDMDL
MODEL 8
REMARK VINA RESULT:      -4.5      1.751      3.605
REMARK  2 active torsions:
REMARK  status: ('A' for Active; 'I' for Inactive)
REMARK    1  A    between atoms: O1_1  and  C12_14 
REMARK    2  A    between atoms: C4_6  and  C12_14 
ROOT
HETATM    1  O2  UNK   900       3.478   2.882  13.669  1.00  0.00    -0.292 OA
HETATM    2  C1  UNK   900       4.959   5.735  12.087  1.00  0.00    -0.000 C 
HETATM    3  C2  UNK   900       6.397   5.405  11.560  1.00  0.00     0.010 C 
HETATM    4  C3  UNK   900       4.786   4.927  13.404  1.00  0.00     0.033 C 
HETATM    5  C4  UNK   900       6.959   4.250  12.423  1.00  0.00    -0.017 C 
HETATM    6  C5  UNK   900       4.917   7.286  12.206  1.00  0.00    -0.005 C 
HETATM    7  C6  UNK   900       6.176   4.369  13.746  1.00  0.00     0.030 C 
HETATM    8  C7  UNK   900       7.142   6.744  11.613  1.00  0.00     0.007 C 
HETATM    9  C8  UNK   900       6.056   7.759  11.301  1.00  0.00     0.006 C 
HETATM   10  C9  UNK   900       3.913   5.142  11.173  1.00  0.00    -0.011 C 
HETATM   11  C10 UNK   900       3.800   3.847  12.991  1.00  0.00     0.158 C 
HETATM   12  C11 UNK   900       4.163   5.647  14.604  1.00  0.00     0.025 C 
HETATM   13  C13 UNK   900       6.703   2.888  11.742  1.00  0.00     0.018 C 
HETATM   14  C14 UNK   900       3.239   4.099  11.658  1.00  0.00     0.048 C 
HETATM   15  C15 UNK   900       3.599   7.975  11.876  1.00  0.00     0.011 C 
ENDROOT
BRANCH   5  16
HETATM   16  C12 UNK   900       8.473   4.335  12.678  1.00  0.00     0.173 C 
BRANCH  16  17
HETATM   17  O1  UNK   900       9.131   3.613  11.659  1.00  0.00    -0.400 OA
HETATM   18  H22 UNK   900       8.467   3.394  10.984  1.00  0.00     0.209 HD
ENDBRANCH  16  17
ENDBRANCH   5  16
TORSDOF 2
ENDMDL
MODEL 9
REMARK VINA RESULT:      -4.5      1.950      3.900
REMARK  2 active torsions:
REMARK  status: ('A' for Active; 'I' for Inactive)
REMARK    1  A    between atoms: O1_1  and  C12_14 
REMARK    2  A    between atoms: C4_6  and  C12_14 
ROOT
HETATM    1  O2  UNK   900       8.767   5.429  13.830  1.00  0.00    -0.292 OA
HETATM    2  C1  UNK   900       6.638   3.401  11.781  1.00  0.00    -0.000 C 
HETATM    3  C2  UNK   900       5.461   4.245  11.181  1.00  0.00     0.010 C 
HETATM    4  C3  UNK   900       6.905   3.979  13.199  1.00  0.00     0.033 C 
HETATM    5  C4  UNK   900       5.208   5.438  12.134  1.00  0.00    -0.017 C 
HETATM    6  C5  UNK   900       6.156   1.924  11.706  1.00  0.00    -0.005 C 
HETATM    7  C6  UNK   900       5.742   4.941  13.492  1.00  0.00     0.030 C 
HETATM    8  C7  UNK   900       4.320   3.238  11.002  1.00  0.00     0.007 C 
HETATM    9  C8  UNK   900       5.045   1.948  10.656  1.00  0.00     0.006 C 
HETATM   10  C9  UNK   900       7.923   3.686  11.040  1.00  0.00    -0.011 C 
HETATM   11  C10 UNK   900       8.232   4.696  13.011  1.00  0.00     0.158 C 
HETATM   12  C11 UNK   900       7.108   2.985  14.346  1.00  0.00     0.025 C 
HETATM   13  C13 UNK   900       5.975   6.689  11.654  1.00  0.00     0.018 C 
HETATM   14  C14 UNK   900       8.837   4.392  11.708  1.00  0.00     0.048 C 
HETATM   15  C15 UNK   900       7.207   0.863  11.403  1.00  0.00     0.011 C 
ENDROOT
BRANCH   5  16
HETATM   16  C12 UNK   900       3.730   5.847  12.249  1.00  0.00     0.173 C 
BRANCH  16  17
HETATM   17  O1  UNK   900       3.323   5.652  13.587  1.00  0.00    -0.400 OA
HETATM   18  H22 UNK   900       3.510   4.725  13.813  1.00  0.00     0.209 HD
ENDBRANCH  16  17
ENDBRANCH   5  16
TORSDOF 2
ENDMDL
