MODEL 1
REMARK VINA RESULT:      -6.0      0.000      0.000
REMARK  3 active torsions:
REMARK  status: ('A' for Active; 'I' for Inactive)
REMARK    1  A    between atoms: O1_1  and  C5_9 
REMARK    2  A    between atoms: O2_2  and  C6_10 
REMARK    3  A    between atoms: O4_4  and  C11_15 
ROOT
HETATM    1  O3  UNK   900     -10.062  -7.950   8.713  1.00  0.00    -0.292 OA
HETATM    2  C1  UNK   900      -9.086  -8.425   5.280  1.00  0.00     0.031 C 
HETATM    3  C2  UNK   900      -9.410  -9.032   6.652  1.00  0.00     0.070 C 
HETATM    4  C3  UNK   900      -8.229  -9.383   4.435  1.00  0.00     0.011 C 
HETATM    5  C4  UNK   900      -8.130  -9.467   7.379  1.00  0.00     0.044 C 
HETATM    6  C5  UNK   900     -10.388  -8.055   4.547  1.00  0.00     0.159 C 
HETATM    7  C6  UNK   900      -7.289 -10.419   6.533  1.00  0.00     0.118 C 
HETATM    8  C7  UNK   900      -6.965  -9.810   5.174  1.00  0.00     0.032 C 
HETATM    9  C8  UNK   900     -10.194  -8.033   7.494  1.00  0.00     0.165 C 
HETATM   10  C9  UNK   900     -11.303  -7.203   5.401  1.00  0.00     0.018 A 
HETATM   11  C10 UNK   900     -11.202  -7.190   6.801  1.00  0.00     0.022 A 
HETATM   12  C11 UNK   900     -12.315  -6.439   4.797  1.00  0.00     0.075 A 
HETATM   13  C12 UNK   900     -12.063  -6.394   7.570  1.00  0.00     0.022 A 
HETATM   14  C13 UNK   900     -13.044  -5.625   6.948  1.00  0.00    -0.058 A 
HETATM   15  C14 UNK   900     -13.175  -5.651   5.564  1.00  0.00     0.044 A 
HETATM   16  C15 UNK   900     -13.963  -4.783   7.768  1.00  0.00     0.048 C 
ENDROOT
BRANCH   6  17
HETATM   17  O1  UNK   900     -10.046  -7.377   3.337  1.00  0.00    -0.390 OA
HETATM   18  H11 UNK   900     -10.412  -6.476   3.383  1.00  0.00     0.210 HD
ENDBRANCH   6  17
BRANCH  12  19
HETATM   19  O4  UNK   900     -12.521  -6.460   3.447  1.00  0.00    -0.360 OA
HETATM   20  H18 UNK   900     -11.675  -6.324   2.986  1.00  0.00     0.217 HD
ENDBRANCH  12  19
BRANCH   7  21
HETATM   21  O2  UNK   900      -6.083 -10.701   7.233  1.00  0.00    -0.396 OA
HETATM   22  H13 UNK   900      -6.068 -10.142   8.028  1.00  0.00     0.210 HD
ENDBRANCH   7  21
TORSDOF 3
ENDMDL
MODEL 2
REMARK VINA RESULT:      -5.9     22.009     23.610
REMARK  3 active torsions:
REMARK  status: ('A' for Active; 'I' for Inactive)
REMARK    1  A    between atoms: O1_1  and  C5_9 
REMARK    2  A    between atoms: O2_2  and  C6_10 
REMARK    3  A    between atoms: O4_4  and  C11_15 
ROOT
HETATM    1  O3  UNK   900      -6.445   2.203 -15.593  1.00  0.00    -0.292 OA
HETATM    2  C1  UNK   900      -4.068   0.992 -13.175  1.00  0.00     0.031 C 
HETATM    3  C2  UNK   900      -4.777   0.817 -14.526  1.00  0.00     0.070 C 
HETATM    4  C3  UNK   900      -3.507  -0.346 -12.663  1.00  0.00     0.011 C 
HETATM    5  C4  UNK   900      -5.850  -0.276 -14.448  1.00  0.00     0.044 C 
HETATM    6  C5  UNK   900      -2.956   2.049 -13.296  1.00  0.00     0.159 C 
HETATM    7  C6  UNK   900      -5.282  -1.599 -13.942  1.00  0.00     0.118 C 
HETATM    8  C7  UNK   900      -4.584  -1.423 -12.598  1.00  0.00     0.032 C 
HETATM    9  C8  UNK   900      -5.388   2.140 -14.971  1.00  0.00     0.165 C 
HETATM   10  C9  UNK   900      -3.459   3.341 -13.904  1.00  0.00     0.018 A 
HETATM   11  C10 UNK   900      -4.620   3.381 -14.693  1.00  0.00     0.022 A 
HETATM   12  C11 UNK   900      -2.732   4.529 -13.724  1.00  0.00     0.075 A 
HETATM   13  C12 UNK   900      -5.063   4.591 -15.246  1.00  0.00     0.022 A 
HETATM   14  C13 UNK   900      -4.340   5.762 -15.035  1.00  0.00    -0.058 A 
HETATM   15  C14 UNK   900      -3.172   5.732 -14.280  1.00  0.00     0.044 A 
HETATM   16  C15 UNK   900      -4.810   7.047 -15.629  1.00  0.00     0.048 C 
ENDROOT
BRANCH   6  17
HETATM   17  O1  UNK   900      -2.409   2.278 -11.997  1.00  0.00    -0.390 OA
HETATM   18  H11 UNK   900      -2.366   3.239 -11.853  1.00  0.00     0.210 HD
ENDBRANCH   6  17
BRANCH  12  19
HETATM   19  O4  UNK   900      -1.555   4.553 -13.032  1.00  0.00    -0.360 OA
HETATM   20  H18 UNK   900      -0.933   5.162 -13.467  1.00  0.00     0.217 HD
ENDBRANCH  12  19
BRANCH   7  21
HETATM   21  O2  UNK   900      -6.349  -2.531 -13.810  1.00  0.00    -0.396 OA
HETATM   22  H13 UNK   900      -7.152  -2.107 -14.160  1.00  0.00     0.210 HD
ENDBRANCH   7  21
TORSDOF 3
ENDMDL
MODEL 3
REMARK VINA RESULT:      -5.9     21.422     23.417
REMARK  3 active torsions:
REMARK  status: ('A' for Active; 'I' for Inactive)
REMARK    1  A    between atoms: O1_1  and  C5_9 
REMARK    2  A    between atoms: O2_2  and  C6_10 
REMARK    3  A    between atoms: O4_4  and  C11_15 
ROOT
HETATM    1  O3  UNK   900      -6.782   2.355 -16.092  1.00  0.00    -0.292 OA
HETATM    2  C1  UNK   900      -7.968  -0.964 -15.356  1.00  0.00     0.031 C 
HETATM    3  C2  UNK   900      -7.593   0.099 -16.399  1.00  0.00     0.070 C 
HETATM    4  C3  UNK   900      -8.911  -2.022 -15.955  1.00  0.00     0.011 C 
HETATM    5  C4  UNK   900      -8.847   0.721 -17.029  1.00  0.00     0.044 C 
HETATM    6  C5  UNK   900      -6.695  -1.614 -14.786  1.00  0.00     0.159 C 
HETATM    7  C6  UNK   900      -9.773  -0.338 -17.621  1.00  0.00     0.118 C 
HETATM    8  C7  UNK   900     -10.148  -1.388 -16.582  1.00  0.00     0.032 C 
HETATM    9  C8  UNK   900      -6.723   1.174 -15.760  1.00  0.00     0.165 C 
HETATM   10  C9  UNK   900      -5.700  -0.587 -14.293  1.00  0.00     0.018 A 
HETATM   11  C10 UNK   900      -5.721   0.739 -14.753  1.00  0.00     0.022 A 
HETATM   12  C11 UNK   900      -4.693  -0.965 -13.389  1.00  0.00     0.075 A 
HETATM   13  C12 UNK   900      -4.785   1.672 -14.281  1.00  0.00     0.022 A 
HETATM   14  C13 UNK   900      -3.810   1.281 -13.367  1.00  0.00    -0.058 A 
HETATM   15  C14 UNK   900      -3.758  -0.037 -12.925  1.00  0.00     0.044 A 
HETATM   16  C15 UNK   900      -2.813   2.273 -12.871  1.00  0.00     0.048 C 
ENDROOT
BRANCH   6  17
HETATM   17  O1  UNK   900      -7.076  -2.500 -13.732  1.00  0.00    -0.390 OA
HETATM   18  H11 UNK   900      -6.310  -2.613 -13.143  1.00  0.00     0.210 HD
ENDBRANCH   6  17
BRANCH  12  19
HETATM   19  O4  UNK   900      -4.563  -2.254 -12.956  1.00  0.00    -0.360 OA
HETATM   20  H18 UNK   900      -5.312  -2.478 -12.376  1.00  0.00     0.217 HD
ENDBRANCH  12  19
BRANCH   7  21
HETATM   21  O2  UNK   900     -10.949   0.305 -18.100  1.00  0.00    -0.396 OA
HETATM   22  H13 UNK   900     -11.308   0.838 -17.370  1.00  0.00     0.210 HD
ENDBRANCH   7  21
TORSDOF 3
ENDMDL
MODEL 4
REMARK VINA RESULT:      -5.7      8.533     11.869
REMARK  3 active torsions:
REMARK  status: ('A' for Active; 'I' for Inactive)
REMARK    1  A    between atoms: O1_1  and  C5_9 
REMARK    2  A    between atoms: O2_2  and  C6_10 
REMARK    3  A    between atoms: O4_4  and  C11_15 
ROOT
HETATM    1  O3  UNK   900     -15.041  -6.969  -5.329  1.00  0.00    -0.292 OA
HETATM    2  C1  UNK   900     -14.872  -4.116  -3.141  1.00  0.00     0.031 C 
HETATM    3  C2  UNK   900     -15.670  -4.957  -4.148  1.00  0.00     0.070 C 
HETATM    4  C3  UNK   900     -15.425  -2.683  -3.052  1.00  0.00     0.011 C 
HETATM    5  C4  UNK   900     -15.730  -4.267  -5.517  1.00  0.00     0.044 C 
HETATM    6  C5  UNK   900     -14.880  -4.799  -1.762  1.00  0.00     0.159 C 
HETATM    7  C6  UNK   900     -16.282  -2.848  -5.417  1.00  0.00     0.118 C 
HETATM    8  C7  UNK   900     -15.484  -2.014  -4.421  1.00  0.00     0.032 C 
HETATM    9  C8  UNK   900     -15.055  -6.346  -4.272  1.00  0.00     0.165 C 
HETATM   10  C9  UNK   900     -14.448  -6.247  -1.838  1.00  0.00     0.018 A 
HETATM   11  C10 UNK   900     -14.526  -6.976  -3.035  1.00  0.00     0.022 A 
HETATM   12  C11 UNK   900     -14.001  -6.907  -0.681  1.00  0.00     0.075 A 
HETATM   13  C12 UNK   900     -14.121  -8.319  -3.079  1.00  0.00     0.022 A 
HETATM   14  C13 UNK   900     -13.658  -8.947  -1.925  1.00  0.00    -0.058 A 
HETATM   15  C14 UNK   900     -13.603  -8.245  -0.725  1.00  0.00     0.044 A 
HETATM   16  C15 UNK   900     -13.233 -10.375  -1.973  1.00  0.00     0.048 C 
ENDROOT
BRANCH   6  17
HETATM   17  O1  UNK   900     -14.025  -4.059  -0.889  1.00  0.00    -0.390 OA
HETATM   18  H11 UNK   900     -13.817  -3.211  -1.319  1.00  0.00     0.210 HD
ENDBRANCH   6  17
BRANCH  12  19
HETATM   19  O4  UNK   900     -13.969  -6.284   0.534  1.00  0.00    -0.360 OA
HETATM   20  H18 UNK   900     -13.177  -5.722   0.590  1.00  0.00     0.217 HD
ENDBRANCH  12  19
BRANCH   7  21
HETATM   21  O2  UNK   900     -16.219  -2.246  -6.705  1.00  0.00    -0.396 OA
HETATM   22  H13 UNK   900     -16.909  -1.561  -6.742  1.00  0.00     0.210 HD
ENDBRANCH   7  21
TORSDOF 3
ENDMDL
MODEL 5
REMARK VINA RESULT:      -5.6     24.087     25.740
REMARK  3 active torsions:
REMARK  status: ('A' for Active; 'I' for Inactive)
REMARK    1  A    between atoms: O1_1  and  C5_9 
REMARK    2  A    between atoms: O2_2  and  C6_10 
REMARK    3  A    between atoms: O4_4  and  C11_15 
ROOT
HETATM    1  O3  UNK   900      11.315  -7.233  -4.591  1.00  0.00    -0.292 OA
HETATM    2  C1  UNK   900      13.997  -5.157  -3.383  1.00  0.00     0.031 C 
HETATM    3  C2  UNK   900      13.539  -6.477  -4.020  1.00  0.00     0.070 C 
HETATM    4  C3  UNK   900      15.380  -5.308  -2.725  1.00  0.00     0.011 C 
HETATM    5  C4  UNK   900      13.580  -7.624  -3.002  1.00  0.00     0.044 C 
HETATM    6  C5  UNK   900      14.006  -4.038  -4.439  1.00  0.00     0.159 C 
HETATM    7  C6  UNK   900      14.957  -7.766  -2.358  1.00  0.00     0.118 C 
HETATM    8  C7  UNK   900      15.407  -6.455  -1.722  1.00  0.00     0.032 C 
HETATM    9  C8  UNK   900      12.137  -6.320  -4.596  1.00  0.00     0.165 C 
HETATM   10  C9  UNK   900      12.691  -3.943  -5.182  1.00  0.00     0.018 A 
HETATM   11  C10 UNK   900      11.802  -5.028  -5.248  1.00  0.00     0.022 A 
HETATM   12  C11 UNK   900      12.358  -2.763  -5.869  1.00  0.00     0.075 A 
HETATM   13  C12 UNK   900      10.590  -4.914  -5.945  1.00  0.00     0.022 A 
HETATM   14  C13 UNK   900      10.269  -3.727  -6.599  1.00  0.00    -0.058 A 
HETATM   15  C14 UNK   900      11.153  -2.654  -6.567  1.00  0.00     0.044 A 
HETATM   16  C15 UNK   900       8.982  -3.611  -7.344  1.00  0.00     0.048 C 
ENDROOT
BRANCH   6  17
HETATM   17  O1  UNK   900      14.311  -2.805  -3.786  1.00  0.00    -0.390 OA
HETATM   18  H11 UNK   900      14.687  -3.012  -2.913  1.00  0.00     0.210 HD
ENDBRANCH   6  17
BRANCH  12  19
HETATM   19  O4  UNK   900      13.206  -1.694  -5.913  1.00  0.00    -0.360 OA
HETATM   20  H18 UNK   900      13.092  -1.223  -6.756  1.00  0.00     0.217 HD
ENDBRANCH  12  19
BRANCH   7  21
HETATM   21  O2  UNK   900      14.890  -8.783  -1.365  1.00  0.00    -0.396 OA
HETATM   22  H13 UNK   900      14.108  -9.329  -1.557  1.00  0.00     0.210 HD
ENDBRANCH   7  21
TORSDOF 3
ENDMDL
MODEL 6
REMARK VINA RESULT:      -5.6      2.268      3.182
REMARK  3 active torsions:
REMARK  status: ('A' for Active; 'I' for Inactive)
REMARK    1  A    between atoms: O1_1  and  C5_9 
REMARK    2  A    between atoms: O2_2  and  C6_10 
REMARK    3  A    between atoms: O4_4  and  C11_15 
ROOT
HETATM    1  O3  UNK   900     -10.958  -5.963   5.977  1.00  0.00    -0.292 OA
HETATM    2  C1  UNK   900      -9.005  -8.861   5.112  1.00  0.00     0.031 C 
HETATM    3  C2  UNK   900      -9.750  -8.047   6.179  1.00  0.00     0.070 C 
HETATM    4  C3  UNK   900      -7.965  -9.797   5.752  1.00  0.00     0.011 C 
HETATM    5  C4  UNK   900      -8.766  -7.296   7.087  1.00  0.00     0.044 C 
HETATM    6  C5  UNK   900     -10.010  -9.652   4.256  1.00  0.00     0.159 C 
HETATM    7  C6  UNK   900      -7.742  -8.235   7.718  1.00  0.00     0.118 C 
HETATM    8  C7  UNK   900      -7.000  -9.038   6.655  1.00  0.00     0.032 C 
HETATM    9  C8  UNK   900     -10.717  -7.075   5.514  1.00  0.00     0.165 C 
HETATM   10  C9  UNK   900     -11.110  -8.771   3.706  1.00  0.00     0.018 A 
HETATM   11  C10 UNK   900     -11.438  -7.543   4.302  1.00  0.00     0.022 A 
HETATM   12  C11 UNK   900     -11.864  -9.199   2.600  1.00  0.00     0.075 A 
HETATM   13  C12 UNK   900     -12.464  -6.745   3.774  1.00  0.00     0.022 A 
HETATM   14  C13 UNK   900     -13.183  -7.179   2.663  1.00  0.00    -0.058 A 
HETATM   15  C14 UNK   900     -12.889  -8.407   2.079  1.00  0.00     0.044 A 
HETATM   16  C15 UNK   900     -14.277  -6.332   2.106  1.00  0.00     0.048 C 
ENDROOT
BRANCH   6  17
HETATM   17  O1  UNK   900      -9.294 -10.292   3.198  1.00  0.00    -0.390 OA
HETATM   18  H11 UNK   900      -9.898 -10.388   2.441  1.00  0.00     0.210 HD
ENDBRANCH   6  17
BRANCH  12  19
HETATM   19  O4  UNK   900     -11.653 -10.415   2.015  1.00  0.00    -0.360 OA
HETATM   20  H18 UNK   900     -11.617 -11.104   2.700  1.00  0.00     0.217 HD
ENDBRANCH  12  19
BRANCH   7  21
HETATM   21  O2  UNK   900      -6.814  -7.457   8.466  1.00  0.00    -0.396 OA
HETATM   22  H13 UNK   900      -6.777  -6.575   8.059  1.00  0.00     0.210 HD
ENDBRANCH   7  21
TORSDOF 3
ENDMDL
MODEL 7
REMARK VINA RESULT:      -5.5     20.723     21.379
REMARK  3 active torsions:
REMARK  status: ('A' for Active; 'I' for Inactive)
REMARK    1  A    between atoms: O1_1  and  C5_9 
REMARK    2  A    between atoms: O2_2  and  C6_10 
REMARK    3  A    between atoms: O4_4  and  C11_15 
ROOT
HETATM    1  O3  UNK   900      -7.002  11.990   9.984  1.00  0.00    -0.292 OA
HETATM    2  C1  UNK   900      -3.413  12.265  10.032  1.00  0.00     0.031 C 
HETATM    3  C2  UNK   900      -4.676  11.457  10.363  1.00  0.00     0.070 C 
HETATM    4  C3  UNK   900      -2.223  11.819  10.898  1.00  0.00     0.011 C 
HETATM    5  C4  UNK   900      -4.990  11.516  11.864  1.00  0.00     0.044 C 
HETATM    6  C5  UNK   900      -3.086  12.139   8.534  1.00  0.00     0.159 C 
HETATM    7  C6  UNK   900      -3.803  11.069  12.713  1.00  0.00     0.118 C 
HETATM    8  C7  UNK   900      -2.553  11.877  12.386  1.00  0.00     0.032 C 
HETATM    9  C8  UNK   900      -5.855  11.971   9.547  1.00  0.00     0.165 C 
HETATM   10  C9  UNK   900      -4.277  12.464   7.658  1.00  0.00     0.018 A 
HETATM   11  C10 UNK   900      -5.591  12.391   8.146  1.00  0.00     0.022 A 
HETATM   12  C11 UNK   900      -4.083  12.803   6.309  1.00  0.00     0.075 A 
HETATM   13  C12 UNK   900      -6.678  12.695   7.314  1.00  0.00     0.022 A 
HETATM   14  C13 UNK   900      -6.461  13.052   5.985  1.00  0.00    -0.058 A 
HETATM   15  C14 UNK   900      -5.166  13.101   5.480  1.00  0.00     0.044 A 
HETATM   16  C15 UNK   900      -7.619  13.371   5.100  1.00  0.00     0.048 C 
ENDROOT
BRANCH   6  17
HETATM   17  O1  UNK   900      -1.987  13.003   8.239  1.00  0.00    -0.390 OA
HETATM   18  H11 UNK   900      -2.347  13.856   7.940  1.00  0.00     0.210 HD
ENDBRANCH   6  17
BRANCH  12  19
HETATM   19  O4  UNK   900      -2.839  12.822   5.745  1.00  0.00    -0.360 OA
HETATM   20  H18 UNK   900      -2.861  12.352   4.893  1.00  0.00     0.217 HD
ENDBRANCH  12  19
BRANCH   7  21
HETATM   21  O2  UNK   900      -4.138  11.239  14.086  1.00  0.00    -0.396 OA
HETATM   22  H13 UNK   900      -3.441  11.782  14.492  1.00  0.00     0.210 HD
ENDBRANCH   7  21
TORSDOF 3
ENDMDL
MODEL 8
REMARK VINA RESULT:      -5.4      2.753      5.372
REMARK  3 active torsions:
REMARK  status: ('A' for Active; 'I' for Inactive)
REMARK    1  A    between atoms: O1_1  and  C5_9 
REMARK    2  A    between atoms: O2_2  and  C6_10 
REMARK    3  A    between atoms: O4_4  and  C11_15 
ROOT
HETATM    1  O3  UNK   900      -7.221 -11.710   5.742  1.00  0.00    -0.292 OA
HETATM    2  C1  UNK   900      -9.528  -8.946   5.700  1.00  0.00     0.031 C 
HETATM    3  C2  UNK   900      -8.078  -9.450   5.725  1.00  0.00     0.070 C 
HETATM    4  C3  UNK   900      -9.626  -7.503   6.224  1.00  0.00     0.011 C 
HETATM    5  C4  UNK   900      -7.464  -9.292   7.123  1.00  0.00     0.044 C 
HETATM    6  C5  UNK   900     -10.099  -9.058   4.275  1.00  0.00     0.159 C 
HETATM    7  C6  UNK   900      -7.564  -7.857   7.631  1.00  0.00     0.118 C 
HETATM    8  C7  UNK   900      -9.006  -7.362   7.610  1.00  0.00     0.032 C 
HETATM    9  C8  UNK   900      -8.022 -10.904   5.274  1.00  0.00     0.165 C 
HETATM   10  C9  UNK   900      -9.914 -10.442   3.691  1.00  0.00     0.018 A 
HETATM   11  C10 UNK   900      -8.930 -11.319   4.174  1.00  0.00     0.022 A 
HETATM   12  C11 UNK   900     -10.705 -10.857   2.607  1.00  0.00     0.075 A 
HETATM   13  C12 UNK   900      -8.777 -12.596   3.614  1.00  0.00     0.022 A 
HETATM   14  C13 UNK   900      -9.589 -12.996   2.555  1.00  0.00    -0.058 A 
HETATM   15  C14 UNK   900     -10.548 -12.126   2.047  1.00  0.00     0.044 A 
HETATM   16  C15 UNK   900      -9.421 -14.352   1.958  1.00  0.00     0.048 C 
ENDROOT
BRANCH   6  17
HETATM   17  O1  UNK   900     -11.483  -8.705   4.316  1.00  0.00    -0.390 OA
HETATM   18  H11 UNK   900     -11.578  -7.815   3.933  1.00  0.00     0.210 HD
ENDBRANCH   6  17
BRANCH  12  19
HETATM   19  O4  UNK   900     -11.630 -10.030   2.036  1.00  0.00    -0.360 OA
HETATM   20  H18 UNK   900     -12.422 -10.544   1.798  1.00  0.00     0.217 HD
ENDBRANCH  12  19
BRANCH   7  21
HETATM   21  O2  UNK   900      -7.061  -7.811   8.962  1.00  0.00    -0.396 OA
HETATM   22  H13 UNK   900      -7.496  -8.521   9.464  1.00  0.00     0.210 HD
ENDBRANCH   7  21
TORSDOF 3
ENDMDL
MODEL 9
REMARK VINA RESULT:      -5.3      1.819      5.624
REMARK  3 active torsions:
REMARK  status: ('A' for Active; 'I' for Inactive)
REMARK    1  A    between atoms: O1_1  and  C5_9 
REMARK    2  A    between atoms: O2_2  and  C6_10 
REMARK    3  A    between atoms: O4_4  and  C11_15 
ROOT
HETATM    1  O3  UNK   900      -9.932  -7.488   7.682  1.00  0.00    -0.292 OA
HETATM    2  C1  UNK   900     -11.544  -7.824   4.481  1.00  0.00     0.031 C 
HETATM    3  C2  UNK   900     -10.954  -6.915   5.569  1.00  0.00     0.070 C 
HETATM    4  C3  UNK   900     -12.536  -7.055   3.591  1.00  0.00     0.011 C 
HETATM    5  C4  UNK   900     -12.065  -6.235   6.381  1.00  0.00     0.044 C 
HETATM    6  C5  UNK   900     -10.413  -8.444   3.642  1.00  0.00     0.159 C 
HETATM    7  C6  UNK   900     -13.040  -5.474   5.488  1.00  0.00     0.118 C 
HETATM    8  C7  UNK   900     -13.628  -6.380   4.413  1.00  0.00     0.032 C 
HETATM    9  C8  UNK   900     -10.036  -7.719   6.480  1.00  0.00     0.165 C 
HETATM   10  C9  UNK   900      -9.362  -9.110   4.504  1.00  0.00     0.018 A 
HETATM   11  C10 UNK   900      -9.191  -8.768   5.854  1.00  0.00     0.022 A 
HETATM   12  C11 UNK   900      -8.495 -10.062   3.940  1.00  0.00     0.075 A 
HETATM   13  C12 UNK   900      -8.208  -9.399   6.630  1.00  0.00     0.022 A 
HETATM   14  C13 UNK   900      -7.375 -10.358   6.057  1.00  0.00    -0.058 A 
HETATM   15  C14 UNK   900      -7.513 -10.686   4.713  1.00  0.00     0.044 A 
HETATM   16  C15 UNK   900      -6.327 -11.024   6.883  1.00  0.00     0.048 C 
ENDROOT
BRANCH   6  17
HETATM   17  O1  UNK   900     -10.990  -9.379   2.730  1.00  0.00    -0.390 OA
HETATM   18  H11 UNK   900     -10.597 -10.252   2.905  1.00  0.00     0.210 HD
ENDBRANCH   6  17
BRANCH  12  19
HETATM   19  O4  UNK   900      -8.553 -10.391   2.616  1.00  0.00    -0.360 OA
HETATM   20  H18 UNK   900      -8.369 -11.340   2.508  1.00  0.00     0.217 HD
ENDBRANCH  12  19
BRANCH   7  21
HETATM   21  O2  UNK   900     -14.086  -4.952   6.301  1.00  0.00    -0.396 OA
HETATM   22  H13 UNK   900     -14.712  -4.496   5.714  1.00  0.00     0.210 HD
ENDBRANCH   7  21
TORSDOF 3
ENDMDL
