MODEL 1
REMARK VINA RESULT:      -4.3      0.000      0.000
REMARK  4 active torsions:
REMARK  status: ('A' for Active; 'I' for Inactive)
REMARK    1  A    between atoms: O2_2  and  C2_6 
REMARK    2  A    between atoms: O3_3  and  C4_8 
REMARK    3  A    between atoms: C1_5  and  C2_6 
REMARK    4  A    between atoms: C1_5  and  C3_7 
ROOT
HETATM    1  O1  UNK   900       6.100  -8.877   1.145  1.00  0.00    -0.273 OA
HETATM    2  O4  UNK   900       7.838 -10.374   1.350  1.00  0.00    -0.260 OA
HETATM    3  C2  UNK   900       4.756  -8.933   0.639  1.00  0.00     0.221 A 
HETATM    4  C4  UNK   900       4.630 -10.349   0.231  1.00  0.00     0.114 A 
HETATM    5  C7  UNK   900       5.741 -11.046   0.437  1.00  0.00     0.120 A 
HETATM    6  C8  UNK   900       6.695 -10.101   1.021  1.00  0.00     0.288 A 
ENDROOT
BRANCH   3   7
HETATM    7  O2  UNK   900       3.807  -8.646   1.658  1.00  0.00    -0.360 OA
HETATM    8  H11 UNK   900       2.930  -8.932   1.359  1.00  0.00     0.213 HD
ENDBRANCH   3   7
BRANCH   3   9
HETATM    9  C1  UNK   900       4.621  -7.954  -0.520  1.00  0.00     0.080 C 
BRANCH   9  10
HETATM   10  C3  UNK   900       5.259  -8.456  -1.826  1.00  0.00    -0.017 C 
HETATM   11  C5  UNK   900       4.243  -8.577  -2.963  1.00  0.00     0.009 C 
HETATM   12  C6  UNK   900       6.394  -7.519  -2.246  1.00  0.00     0.009 C 
ENDBRANCH   9  10
ENDBRANCH   3   9
BRANCH   4  13
HETATM   13  O3  UNK   900       3.469 -10.848  -0.288  1.00  0.00    -0.354 OA
HETATM   14  C9  UNK   900       3.724 -11.916  -1.187  1.00  0.00     0.209 C 
ENDBRANCH   4  13
TORSDOF 4
ENDMDL
MODEL 2
REMARK VINA RESULT:      -4.2      1.943      2.595
REMARK  4 active torsions:
REMARK  status: ('A' for Active; 'I' for Inactive)
REMARK    1  A    between atoms: O2_2  and  C2_6 
REMARK    2  A    between atoms: O3_3  and  C4_8 
REMARK    3  A    between atoms: C1_5  and  C2_6 
REMARK    4  A    between atoms: C1_5  and  C3_7 
ROOT
HETATM    1  O1  UNK   900       5.002  -8.501   0.624  1.00  0.00    -0.273 OA
HETATM    2  O4  UNK   900       3.863  -9.801   2.146  1.00  0.00    -0.260 OA
HETATM    3  C2  UNK   900       4.965  -8.326  -0.802  1.00  0.00     0.221 A 
HETATM    4  C4  UNK   900       3.875  -9.242  -1.205  1.00  0.00     0.114 A 
HETATM    5  C7  UNK   900       3.344  -9.894  -0.178  1.00  0.00     0.120 A 
HETATM    6  C8  UNK   900       4.069  -9.425   1.004  1.00  0.00     0.288 A 
ENDROOT
BRANCH   3   7
HETATM    7  O2  UNK   900       4.618  -6.993  -1.151  1.00  0.00    -0.360 OA
HETATM    8  H11 UNK   900       3.652  -6.919  -1.184  1.00  0.00     0.213 HD
ENDBRANCH   3   7
BRANCH   3   9
HETATM    9  C1  UNK   900       6.321  -8.705  -1.383  1.00  0.00     0.080 C 
BRANCH   9  10
HETATM   10  C3  UNK   900       6.423  -8.483  -2.902  1.00  0.00    -0.017 C 
HETATM   11  C5  UNK   900       7.356  -7.326  -3.261  1.00  0.00     0.009 C 
HETATM   12  C6  UNK   900       6.904  -9.766  -3.584  1.00  0.00     0.009 C 
ENDBRANCH   9  10
ENDBRANCH   3   9
BRANCH   4  13
HETATM   13  O3  UNK   900       3.482  -9.362  -2.507  1.00  0.00    -0.354 OA
HETATM   14  C9  UNK   900       3.407 -10.725  -2.899  1.00  0.00     0.209 C 
ENDBRANCH   4  13
TORSDOF 4
ENDMDL
MODEL 3
REMARK VINA RESULT:      -4.2      1.419      2.026
REMARK  4 active torsions:
REMARK  status: ('A' for Active; 'I' for Inactive)
REMARK    1  A    between atoms: O2_2  and  C2_6 
REMARK    2  A    between atoms: O3_3  and  C4_8 
REMARK    3  A    between atoms: C1_5  and  C2_6 
REMARK    4  A    between atoms: C1_5  and  C3_7 
ROOT
HETATM    1  O1  UNK   900       6.858 -10.066  -0.058  1.00  0.00    -0.273 OA
HETATM    2  O4  UNK   900       7.071 -12.346  -0.299  1.00  0.00    -0.260 OA
HETATM    3  C2  UNK   900       5.911  -9.188   0.574  1.00  0.00     0.221 A 
HETATM    4  C4  UNK   900       4.949 -10.139   1.173  1.00  0.00     0.114 A 
HETATM    5  C7  UNK   900       5.254 -11.406   0.923  1.00  0.00     0.120 A 
HETATM    6  C8  UNK   900       6.481 -11.367   0.126  1.00  0.00     0.288 A 
ENDROOT
BRANCH   3   7
HETATM    7  O2  UNK   900       6.522  -8.421   1.602  1.00  0.00    -0.360 OA
HETATM    8  H11 UNK   900       6.777  -7.558   1.240  1.00  0.00     0.213 HD
ENDBRANCH   3   7
BRANCH   3   9
HETATM    9  C1  UNK   900       5.291  -8.285  -0.484  1.00  0.00     0.080 C 
BRANCH   9  10
HETATM   10  C3  UNK   900       5.811  -8.556  -1.906  1.00  0.00    -0.017 C 
HETATM   11  C5  UNK   900       4.682  -8.843  -2.896  1.00  0.00     0.009 C 
HETATM   12  C6  UNK   900       6.636  -7.362  -2.395  1.00  0.00     0.009 C 
ENDBRANCH   9  10
ENDBRANCH   3   9
BRANCH   4  13
HETATM   13  O3  UNK   900       3.881  -9.713   1.909  1.00  0.00    -0.354 OA
HETATM   14  C9  UNK   900       3.914 -10.248   3.223  1.00  0.00     0.209 C 
ENDBRANCH   4  13
TORSDOF 4
ENDMDL
MODEL 4
REMARK VINA RESULT:      -4.2     21.255     22.473
REMARK  4 active torsions:
REMARK  status: ('A' for Active; 'I' for Inactive)
REMARK    1  A    between atoms: O2_2  and  C2_6 
REMARK    2  A    between atoms: O3_3  and  C4_8 
REMARK    3  A    between atoms: C1_5  and  C2_6 
REMARK    4  A    between atoms: C1_5  and  C3_7 
ROOT
HETATM    1  O1  UNK   900     -16.274  -2.865  -1.933  1.00  0.00    -0.273 OA
HETATM    2  O4  UNK   900     -17.350  -4.227  -0.420  1.00  0.00    -0.260 OA
HETATM    3  C2  UNK   900     -16.067  -2.878  -3.356  1.00  0.00     0.221 A 
HETATM    4  C4  UNK   900     -16.806  -4.091  -3.771  1.00  0.00     0.114 A 
HETATM    5  C7  UNK   900     -17.361  -4.732  -2.749  1.00  0.00     0.120 A 
HETATM    6  C8  UNK   900     -17.017  -3.950  -1.560  1.00  0.00     0.288 A 
ENDROOT
BRANCH   3   7
HETATM    7  O2  UNK   900     -16.644  -1.736  -3.973  1.00  0.00    -0.360 OA
HETATM    8  H11 UNK   900     -17.082  -2.010  -4.793  1.00  0.00     0.213 HD
ENDBRANCH   3   7
BRANCH   3   9
HETATM    9  C1  UNK   900     -14.573  -2.953  -3.639  1.00  0.00     0.080 C 
BRANCH   9  10
HETATM   10  C3  UNK   900     -14.124  -2.066  -4.813  1.00  0.00    -0.017 C 
HETATM   11  C5  UNK   900     -13.134  -0.984  -4.382  1.00  0.00     0.009 C 
HETATM   12  C6  UNK   900     -13.498  -2.932  -5.909  1.00  0.00     0.009 C 
ENDBRANCH   9  10
ENDBRANCH   3   9
BRANCH   4  13
HETATM   13  O3  UNK   900     -16.894  -4.466  -5.081  1.00  0.00    -0.354 OA
HETATM   14  C9  UNK   900     -18.244  -4.511  -5.515  1.00  0.00     0.209 C 
ENDBRANCH   4  13
TORSDOF 4
ENDMDL
MODEL 5
REMARK VINA RESULT:      -4.1     21.048     22.474
REMARK  4 active torsions:
REMARK  status: ('A' for Active; 'I' for Inactive)
REMARK    1  A    between atoms: O2_2  and  C2_6 
REMARK    2  A    between atoms: O3_3  and  C4_8 
REMARK    3  A    between atoms: C1_5  and  C2_6 
REMARK    4  A    between atoms: C1_5  and  C3_7 
ROOT
HETATM    1  O1  UNK   900     -14.246  -2.887  -3.593  1.00  0.00    -0.273 OA
HETATM    2  O4  UNK   900     -14.468  -4.219  -1.728  1.00  0.00    -0.260 OA
HETATM    3  C2  UNK   900     -15.141  -2.116  -4.412  1.00  0.00     0.221 A 
HETATM    4  C4  UNK   900     -16.442  -2.320  -3.737  1.00  0.00     0.114 A 
HETATM    5  C7  UNK   900     -16.354  -3.116  -2.678  1.00  0.00     0.120 A 
HETATM    6  C8  UNK   900     -14.942  -3.489  -2.582  1.00  0.00     0.288 A 
ENDROOT
BRANCH   3   7
HETATM    7  O2  UNK   900     -14.805  -0.736  -4.388  1.00  0.00    -0.360 OA
HETATM    8  H11 UNK   900     -15.407  -0.278  -3.781  1.00  0.00     0.213 HD
ENDBRANCH   3   7
BRANCH   3   9
HETATM    9  C1  UNK   900     -15.104  -2.660  -5.834  1.00  0.00     0.080 C 
BRANCH   9  10
HETATM   10  C3  UNK   900     -15.858  -3.991  -6.003  1.00  0.00    -0.017 C 
HETATM   11  C5  UNK   900     -16.822  -3.968  -7.190  1.00  0.00     0.009 C 
HETATM   12  C6  UNK   900     -14.858  -5.137  -6.172  1.00  0.00     0.009 C 
ENDBRANCH   9  10
ENDBRANCH   3   9
BRANCH   4  13
HETATM   13  O3  UNK   900     -17.585  -1.723  -4.185  1.00  0.00    -0.354 OA
HETATM   14  C9  UNK   900     -18.726  -2.522  -3.910  1.00  0.00     0.209 C 
ENDBRANCH   4  13
TORSDOF 4
ENDMDL
MODEL 6
REMARK VINA RESULT:      -4.0     14.552     16.069
REMARK  4 active torsions:
REMARK  status: ('A' for Active; 'I' for Inactive)
REMARK    1  A    between atoms: O2_2  and  C2_6 
REMARK    2  A    between atoms: O3_3  and  C4_8 
REMARK    3  A    between atoms: C1_5  and  C2_6 
REMARK    4  A    between atoms: C1_5  and  C3_7 
ROOT
HETATM    1  O1  UNK   900      -9.057  -7.087   7.306  1.00  0.00    -0.273 OA
HETATM    2  O4  UNK   900     -10.355  -7.148   5.405  1.00  0.00    -0.260 OA
HETATM    3  C2  UNK   900      -8.068  -7.946   7.897  1.00  0.00     0.221 A 
HETATM    4  C4  UNK   900      -7.974  -9.045   6.912  1.00  0.00     0.114 A 
HETATM    5  C7  UNK   900      -8.800  -8.889   5.885  1.00  0.00     0.120 A 
HETATM    6  C8  UNK   900      -9.506  -7.631   6.135  1.00  0.00     0.288 A 
ENDROOT
BRANCH   3   7
HETATM    7  O2  UNK   900      -6.810  -7.292   8.000  1.00  0.00    -0.360 OA
HETATM    8  H11 UNK   900      -6.154  -7.925   8.330  1.00  0.00     0.213 HD
ENDBRANCH   3   7
BRANCH   3   9
HETATM    9  C1  UNK   900      -8.559  -8.399   9.265  1.00  0.00     0.080 C 
BRANCH   9  10
HETATM   10  C3  UNK   900      -7.427  -8.613  10.286  1.00  0.00    -0.017 C 
HETATM   11  C5  UNK   900      -7.658  -7.839  11.584  1.00  0.00     0.009 C 
HETATM   12  C6  UNK   900      -7.279 -10.105  10.593  1.00  0.00     0.009 C 
ENDBRANCH   9  10
ENDBRANCH   3   9
BRANCH   4  13
HETATM   13  O3  UNK   900      -7.104 -10.085   7.076  1.00  0.00    -0.354 OA
HETATM   14  C9  UNK   900      -6.240 -10.216   5.958  1.00  0.00     0.209 C 
ENDBRANCH   4  13
TORSDOF 4
ENDMDL
MODEL 7
REMARK VINA RESULT:      -4.0     21.322     22.741
REMARK  4 active torsions:
REMARK  status: ('A' for Active; 'I' for Inactive)
REMARK    1  A    between atoms: O2_2  and  C2_6 
REMARK    2  A    between atoms: O3_3  and  C4_8 
REMARK    3  A    between atoms: C1_5  and  C2_6 
REMARK    4  A    between atoms: C1_5  and  C3_7 
ROOT
HETATM    1  O1  UNK   900     -15.551  -1.606  -4.895  1.00  0.00    -0.273 OA
HETATM    2  O4  UNK   900     -13.272  -1.547  -4.570  1.00  0.00    -0.260 OA
HETATM    3  C2  UNK   900     -16.653  -2.303  -4.290  1.00  0.00     0.221 A 
HETATM    4  C4  UNK   900     -15.986  -3.083  -3.224  1.00  0.00     0.114 A 
HETATM    5  C7  UNK   900     -14.671  -2.905  -3.200  1.00  0.00     0.120 A 
HETATM    6  C8  UNK   900     -14.383  -1.958  -4.278  1.00  0.00     0.288 A 
ENDROOT
BRANCH   3   7
HETATM    7  O2  UNK   900     -17.579  -1.398  -3.706  1.00  0.00    -0.360 OA
HETATM    8  H11 UNK   900     -17.123  -0.876  -3.028  1.00  0.00     0.213 HD
ENDBRANCH   3   7
BRANCH   3   9
HETATM    9  C1  UNK   900     -17.329  -3.170  -5.343  1.00  0.00     0.080 C 
BRANCH   9  10
HETATM   10  C3  UNK   900     -16.457  -3.422  -6.585  1.00  0.00    -0.017 C 
HETATM   11  C5  UNK   900     -15.857  -4.828  -6.602  1.00  0.00     0.009 C 
HETATM   12  C6  UNK   900     -17.283  -3.198  -7.854  1.00  0.00     0.009 C 
ENDBRANCH   9  10
ENDBRANCH   3   9
BRANCH   4  13
HETATM   13  O3  UNK   900     -16.691  -3.882  -2.369  1.00  0.00    -0.354 OA
HETATM   14  C9  UNK   900     -16.281  -3.686  -1.024  1.00  0.00     0.209 C 
ENDBRANCH   4  13
TORSDOF 4
ENDMDL
MODEL 8
REMARK VINA RESULT:      -4.0     17.997     19.166
REMARK  4 active torsions:
REMARK  status: ('A' for Active; 'I' for Inactive)
REMARK    1  A    between atoms: O2_2  and  C2_6 
REMARK    2  A    between atoms: O3_3  and  C4_8 
REMARK    3  A    between atoms: C1_5  and  C2_6 
REMARK    4  A    between atoms: C1_5  and  C3_7 
ROOT
HETATM    1  O1  UNK   900      -3.396  -2.681 -14.194  1.00  0.00    -0.273 OA
HETATM    2  O4  UNK   900      -3.515  -4.808 -15.070  1.00  0.00    -0.260 OA
HETATM    3  C2  UNK   900      -4.352  -1.679 -13.808  1.00  0.00     0.221 A 
HETATM    4  C4  UNK   900      -5.641  -2.352 -14.075  1.00  0.00     0.114 A 
HETATM    5  C7  UNK   900      -5.492  -3.574 -14.571  1.00  0.00     0.120 A 
HETATM    6  C8  UNK   900      -4.047  -3.791 -14.656  1.00  0.00     0.288 A 
ENDROOT
BRANCH   3   7
HETATM    7  O2  UNK   900      -4.252  -1.376 -12.423  1.00  0.00    -0.360 OA
HETATM    8  H11 UNK   900      -3.435  -1.765 -12.075  1.00  0.00     0.213 HD
ENDBRANCH   3   7
BRANCH   3   9
HETATM    9  C1  UNK   900      -4.132  -0.433 -14.654  1.00  0.00     0.080 C 
BRANCH   9  10
HETATM   10  C3  UNK   900      -4.723   0.845 -14.033  1.00  0.00    -0.017 C 
HETATM   11  C5  UNK   900      -3.644   1.850 -13.628  1.00  0.00     0.009 C 
HETATM   12  C6  UNK   900      -5.696   1.500 -15.018  1.00  0.00     0.009 C 
ENDBRANCH   9  10
ENDBRANCH   3   9
BRANCH   4  13
HETATM   13  O3  UNK   900      -6.837  -1.747 -13.810  1.00  0.00    -0.354 OA
HETATM   14  C9  UNK   900      -7.646  -1.675 -14.974  1.00  0.00     0.209 C 
ENDBRANCH   4  13
TORSDOF 4
ENDMDL
MODEL 9
REMARK VINA RESULT:      -3.8     18.838     20.865
REMARK  4 active torsions:
REMARK  status: ('A' for Active; 'I' for Inactive)
REMARK    1  A    between atoms: O2_2  and  C2_6 
REMARK    2  A    between atoms: O3_3  and  C4_8 
REMARK    3  A    between atoms: C1_5  and  C2_6 
REMARK    4  A    between atoms: C1_5  and  C3_7 
ROOT
HETATM    1  O1  UNK   900      26.017  -5.857   1.695  1.00  0.00    -0.273 OA
HETATM    2  O4  UNK   900      25.987  -3.557   1.806  1.00  0.00    -0.260 OA
HETATM    3  C2  UNK   900      25.111  -6.910   2.063  1.00  0.00     0.221 A 
HETATM    4  C4  UNK   900      23.947  -6.159   2.582  1.00  0.00     0.114 A 
HETATM    5  C7  UNK   900      24.127  -4.845   2.555  1.00  0.00     0.120 A 
HETATM    6  C8  UNK   900      25.462  -4.642   1.989  1.00  0.00     0.288 A 
ENDROOT
BRANCH   3   7
HETATM    7  O2  UNK   900      24.717  -7.673   0.931  1.00  0.00    -0.360 OA
HETATM    8  H11 UNK   900      24.353  -8.519   1.234  1.00  0.00     0.213 HD
ENDBRANCH   3   7
BRANCH   3   9
HETATM    9  C1  UNK   900      25.777  -7.794   3.109  1.00  0.00     0.080 C 
BRANCH   9  10
HETATM   10  C3  UNK   900      27.010  -7.149   3.765  1.00  0.00    -0.017 C 
HETATM   11  C5  UNK   900      26.675  -6.465   5.091  1.00  0.00     0.009 C 
HETATM   12  C6  UNK   900      28.094  -8.206   3.987  1.00  0.00     0.009 C 
ENDBRANCH   9  10
ENDBRANCH   3   9
BRANCH   4  13
HETATM   13  O3  UNK   900      22.820  -6.794   3.022  1.00  0.00    -0.354 OA
HETATM   14  C9  UNK   900      22.298  -6.170   4.185  1.00  0.00     0.209 C 
ENDBRANCH   4  13
TORSDOF 4
ENDMDL
