MODEL 1
REMARK VINA RESULT:      -5.8      0.000      0.000
REMARK  4 active torsions:
REMARK  status: ('A' for Active; 'I' for Inactive)
REMARK    1  A    between atoms: O2_2  and  C7_13 
REMARK    2  A    between atoms: O4_4  and  C9_15 
REMARK    3  A    between atoms: O5_5  and  C10_16 
REMARK    4  A    between atoms: O6_6  and  C13_19 
ROOT
HETATM    1  O1  UNK   900     -10.063  -7.956   7.898  1.00  0.00    -0.306 OA
HETATM    2  O3  UNK   900      -9.917  -8.099   3.812  1.00  0.00    -0.286 OA
HETATM    3  C1  UNK   900      -9.019  -8.825   5.869  1.00  0.00     0.058 A 
HETATM    4  C2  UNK   900      -9.127  -8.729   7.256  1.00  0.00     0.127 A 
HETATM    5  C3  UNK   900     -10.953  -7.241   5.739  1.00  0.00     0.082 A 
HETATM    6  C4  UNK   900      -8.037  -9.632   5.288  1.00  0.00    -0.042 A 
HETATM    7  C5  UNK   900      -9.956  -8.061   5.032  1.00  0.00     0.201 A 
HETATM    8  C6  UNK   900     -10.948  -7.236   7.134  1.00  0.00     0.096 A 
HETATM    9  C7  UNK   900      -8.247  -9.445   8.070  1.00  0.00     0.136 A 
HETATM   10  C8  UNK   900      -7.161 -10.346   6.106  1.00  0.00     0.047 A 
HETATM   11  C9  UNK   900     -11.885  -6.480   5.029  1.00  0.00     0.085 A 
HETATM   12  C10 UNK   900      -7.265 -10.253   7.494  1.00  0.00     0.102 A 
HETATM   13  C11 UNK   900     -11.884  -6.465   7.825  1.00  0.00     0.075 A 
HETATM   14  C12 UNK   900      -7.856  -9.789   3.813  1.00  0.00     0.049 C 
HETATM   15  C13 UNK   900     -12.818  -5.704   7.120  1.00  0.00     0.073 A 
HETATM   16  C14 UNK   900     -12.819  -5.712   5.726  1.00  0.00     0.074 A 
ENDROOT
BRANCH   9  17
HETATM   17  O2  UNK   900      -8.341  -9.361   9.428  1.00  0.00    -0.351 OA
HETATM   18  C15 UNK   900      -7.506  -8.404  10.075  1.00  0.00     0.210 C 
ENDBRANCH   9  17
BRANCH  12  19
HETATM   19  O5  UNK   900      -6.401 -10.958   8.278  1.00  0.00    -0.358 OA
HETATM   20  H8  UNK   900      -6.896 -11.364   9.010  1.00  0.00     0.217 HD
ENDBRANCH  12  19
BRANCH  11  21
HETATM   21  O4  UNK   900     -11.932  -6.451   3.668  1.00  0.00    -0.360 OA
HETATM   22  H7  UNK   900     -12.441  -5.684   3.363  1.00  0.00     0.217 HD
ENDBRANCH  11  21
BRANCH  15  23
HETATM   23  O6  UNK   900     -13.730  -4.952   7.796  1.00  0.00    -0.356 OA
HETATM   24  C16 UNK   900     -14.867  -4.497   7.064  1.00  0.00     0.210 C 
ENDBRANCH  15  23
TORSDOF 4
ENDMDL
MODEL 2
REMARK VINA RESULT:      -5.6      2.414      7.014
REMARK  4 active torsions:
REMARK  status: ('A' for Active; 'I' for Inactive)
REMARK    1  A    between atoms: O2_2  and  C7_13 
REMARK    2  A    between atoms: O4_4  and  C9_15 
REMARK    3  A    between atoms: O5_5  and  C10_16 
REMARK    4  A    between atoms: O6_6  and  C13_19 
ROOT
HETATM    1  O1  UNK   900      -9.613 -10.549   4.340  1.00  0.00    -0.306 OA
HETATM    2  O3  UNK   900      -8.385  -8.139   7.409  1.00  0.00    -0.286 OA
HETATM    3  C1  UNK   900      -9.680  -8.376   5.451  1.00  0.00     0.058 A 
HETATM    4  C2  UNK   900     -10.057  -9.253   4.434  1.00  0.00     0.127 A 
HETATM    5  C3  UNK   900      -8.294 -10.246   6.372  1.00  0.00     0.082 A 
HETATM    6  C4  UNK   900     -10.173  -7.069   5.479  1.00  0.00    -0.042 A 
HETATM    7  C5  UNK   900      -8.756  -8.853   6.490  1.00  0.00     0.201 A 
HETATM    8  C6  UNK   900      -8.750 -11.014   5.301  1.00  0.00     0.096 A 
HETATM    9  C7  UNK   900     -10.933  -8.820   3.437  1.00  0.00     0.136 A 
HETATM   10  C8  UNK   900     -11.048  -6.642   4.480  1.00  0.00     0.047 A 
HETATM   11  C9  UNK   900      -7.414 -10.789   7.312  1.00  0.00     0.085 A 
HETATM   12  C10 UNK   900     -11.428  -7.515   3.461  1.00  0.00     0.102 A 
HETATM   13  C11 UNK   900      -8.324 -12.337   5.170  1.00  0.00     0.075 A 
HETATM   14  C12 UNK   900      -9.818  -6.069   6.533  1.00  0.00     0.049 C 
HETATM   15  C13 UNK   900      -7.447 -12.884   6.106  1.00  0.00     0.073 A 
HETATM   16  C14 UNK   900      -6.993 -12.112   7.175  1.00  0.00     0.074 A 
ENDROOT
BRANCH   9  17
HETATM   17  O2  UNK   900     -11.310  -9.667   2.436  1.00  0.00    -0.351 OA
HETATM   18  C15 UNK   900     -12.484 -10.444   2.656  1.00  0.00     0.210 C 
ENDBRANCH   9  17
BRANCH  12  19
HETATM   19  O5  UNK   900     -12.284  -7.082   2.494  1.00  0.00    -0.358 OA
HETATM   20  H8  UNK   900     -12.929  -6.471   2.890  1.00  0.00     0.217 HD
ENDBRANCH  12  19
BRANCH  11  21
HETATM   21  O4  UNK   900      -6.940 -10.082   8.375  1.00  0.00    -0.360 OA
HETATM   22  H7  UNK   900      -7.672  -9.778   8.935  1.00  0.00     0.217 HD
ENDBRANCH  11  21
BRANCH  15  23
HETATM   23  O6  UNK   900      -7.032 -14.175   5.976  1.00  0.00    -0.356 OA
HETATM   24  C16 UNK   900      -5.923 -14.584   6.775  1.00  0.00     0.210 C 
ENDBRANCH  15  23
TORSDOF 4
ENDMDL
MODEL 3
REMARK VINA RESULT:      -5.3     31.989     33.785
REMARK  4 active torsions:
REMARK  status: ('A' for Active; 'I' for Inactive)
REMARK    1  A    between atoms: O2_2  and  C7_13 
REMARK    2  A    between atoms: O4_4  and  C9_15 
REMARK    3  A    between atoms: O5_5  and  C10_16 
REMARK    4  A    between atoms: O6_6  and  C13_19 
ROOT
HETATM    1  O1  UNK   900      23.821  -5.639   3.391  1.00  0.00    -0.306 OA
HETATM    2  O3  UNK   900      21.699  -3.663   6.277  1.00  0.00    -0.286 OA
HETATM    3  C1  UNK   900      22.719  -5.669   5.569  1.00  0.00     0.058 A 
HETATM    4  C2  UNK   900      23.442  -6.279   4.545  1.00  0.00     0.127 A 
HETATM    5  C3  UNK   900      22.750  -3.590   4.176  1.00  0.00     0.082 A 
HETATM    6  C4  UNK   900      22.368  -6.388   6.715  1.00  0.00    -0.042 A 
HETATM    7  C5  UNK   900      22.333  -4.258   5.420  1.00  0.00     0.201 A 
HETATM    8  C6  UNK   900      23.471  -4.320   3.232  1.00  0.00     0.096 A 
HETATM    9  C7  UNK   900      23.819  -7.618   4.666  1.00  0.00     0.136 A 
HETATM   10  C8  UNK   900      22.748  -7.725   6.832  1.00  0.00     0.047 A 
HETATM   11  C9  UNK   900      22.429  -2.250   3.944  1.00  0.00     0.085 A 
HETATM   12  C10 UNK   900      23.471  -8.340   5.809  1.00  0.00     0.102 A 
HETATM   13  C11 UNK   900      23.876  -3.706   2.046  1.00  0.00     0.075 A 
HETATM   14  C12 UNK   900      21.596  -5.808   7.856  1.00  0.00     0.049 C 
HETATM   15  C13 UNK   900      23.559  -2.368   1.810  1.00  0.00     0.073 A 
HETATM   16  C14 UNK   900      22.838  -1.641   2.756  1.00  0.00     0.074 A 
ENDROOT
BRANCH   9  17
HETATM   17  O2  UNK   900      24.527  -8.228   3.672  1.00  0.00    -0.351 OA
HETATM   18  C15 UNK   900      25.933  -8.002   3.650  1.00  0.00     0.210 C 
ENDBRANCH   9  17
BRANCH  12  19
HETATM   19  O5  UNK   900      23.834  -9.647   5.940  1.00  0.00    -0.358 OA
HETATM   20  H8  UNK   900      23.040 -10.205   5.873  1.00  0.00     0.217 HD
ENDBRANCH  12  19
BRANCH  11  21
HETATM   21  O4  UNK   900      21.729  -1.492   4.833  1.00  0.00    -0.360 OA
HETATM   22  H7  UNK   900      20.930  -1.961   5.123  1.00  0.00     0.217 HD
ENDBRANCH  11  21
BRANCH  15  23
HETATM   23  O6  UNK   900      23.955  -1.771   0.651  1.00  0.00    -0.356 OA
HETATM   24  C16 UNK   900      25.206  -1.085   0.670  1.00  0.00     0.210 C 
ENDBRANCH  15  23
TORSDOF 4
ENDMDL
MODEL 4
REMARK VINA RESULT:      -5.3      2.071      6.700
REMARK  4 active torsions:
REMARK  status: ('A' for Active; 'I' for Inactive)
REMARK    1  A    between atoms: O2_2  and  C7_13 
REMARK    2  A    between atoms: O4_4  and  C9_15 
REMARK    3  A    between atoms: O5_5  and  C10_16 
REMARK    4  A    between atoms: O6_6  and  C13_19 
ROOT
HETATM    1  O1  UNK   900     -10.263  -9.098   3.940  1.00  0.00    -0.306 OA
HETATM    2  O3  UNK   900     -11.007  -6.339   6.868  1.00  0.00    -0.286 OA
HETATM    3  C1  UNK   900     -11.695  -7.340   4.845  1.00  0.00     0.058 A 
HETATM    4  C2  UNK   900     -11.379  -8.299   3.884  1.00  0.00     0.127 A 
HETATM    5  C3  UNK   900      -9.602  -8.028   6.033  1.00  0.00     0.082 A 
HETATM    6  C4  UNK   900     -12.849  -6.562   4.718  1.00  0.00    -0.042 A 
HETATM    7  C5  UNK   900     -10.791  -7.161   5.991  1.00  0.00     0.201 A 
HETATM    8  C6  UNK   900      -9.406  -8.947   5.003  1.00  0.00     0.096 A 
HETATM    9  C7  UNK   900     -12.222  -8.485   2.788  1.00  0.00     0.136 A 
HETATM   10  C8  UNK   900     -13.689  -6.752   3.621  1.00  0.00     0.047 A 
HETATM   11  C9  UNK   900      -8.685  -7.932   7.083  1.00  0.00     0.085 A 
HETATM   12  C10 UNK   900     -13.377  -7.711   2.657  1.00  0.00     0.102 A 
HETATM   13  C11 UNK   900      -8.285  -9.779   5.023  1.00  0.00     0.075 A 
HETATM   14  C12 UNK   900     -13.258  -5.515   5.703  1.00  0.00     0.049 C 
HETATM   15  C13 UNK   900      -7.367  -9.687   6.070  1.00  0.00     0.073 A 
HETATM   16  C14 UNK   900      -7.567  -8.767   7.098  1.00  0.00     0.074 A 
ENDROOT
BRANCH   9  17
HETATM   17  O2  UNK   900     -11.926  -9.420   1.840  1.00  0.00    -0.351 OA
HETATM   18  C15 UNK   900     -12.470 -10.723   2.027  1.00  0.00     0.210 C 
ENDBRANCH   9  17
BRANCH  12  19
HETATM   19  O5  UNK   900     -14.209  -7.883   1.592  1.00  0.00    -0.358 OA
HETATM   20  H8  UNK   900     -13.810  -8.523   0.978  1.00  0.00     0.217 HD
ENDBRANCH  12  19
BRANCH  11  21
HETATM   21  O4  UNK   900      -8.830  -7.052   8.113  1.00  0.00    -0.360 OA
HETATM   22  H7  UNK   900      -8.153  -7.208   8.790  1.00  0.00     0.217 HD
ENDBRANCH  11  21
BRANCH  15  23
HETATM   23  O6  UNK   900      -6.274 -10.499   6.087  1.00  0.00    -0.356 OA
HETATM   24  C16 UNK   900      -6.441 -11.801   6.647  1.00  0.00     0.210 C 
ENDBRANCH  15  23
TORSDOF 4
ENDMDL
MODEL 5
REMARK VINA RESULT:      -5.3      2.777      5.565
REMARK  4 active torsions:
REMARK  status: ('A' for Active; 'I' for Inactive)
REMARK    1  A    between atoms: O2_2  and  C7_13 
REMARK    2  A    between atoms: O4_4  and  C9_15 
REMARK    3  A    between atoms: O5_5  and  C10_16 
REMARK    4  A    between atoms: O6_6  and  C13_19 
ROOT
HETATM    1  O1  UNK   900      -8.301 -10.837   5.464  1.00  0.00    -0.306 OA
HETATM    2  O3  UNK   900     -11.054  -8.268   3.863  1.00  0.00    -0.286 OA
HETATM    3  C1  UNK   900      -9.442  -8.679   5.536  1.00  0.00     0.058 A 
HETATM    4  C2  UNK   900      -8.521  -9.604   6.027  1.00  0.00     0.127 A 
HETATM    5  C3  UNK   900      -9.979 -10.356   3.756  1.00  0.00     0.082 A 
HETATM    6  C4  UNK   900      -9.611  -7.443   6.166  1.00  0.00    -0.042 A 
HETATM    7  C5  UNK   900     -10.230  -9.030   4.345  1.00  0.00     0.201 A 
HETATM    8  C6  UNK   900      -9.027 -11.183   4.351  1.00  0.00     0.096 A 
HETATM    9  C7  UNK   900      -7.762  -9.292   7.157  1.00  0.00     0.136 A 
HETATM   10  C8  UNK   900      -8.850  -7.136   7.293  1.00  0.00     0.047 A 
HETATM   11  C9  UNK   900     -10.679 -10.777   2.623  1.00  0.00     0.085 A 
HETATM   12  C10 UNK   900      -7.928  -8.058   7.789  1.00  0.00     0.102 A 
HETATM   13  C11 UNK   900      -8.773 -12.444   3.808  1.00  0.00     0.075 A 
HETATM   14  C12 UNK   900     -10.575  -6.399   5.702  1.00  0.00     0.049 C 
HETATM   15  C13 UNK   900      -9.469 -12.870   2.677  1.00  0.00     0.073 A 
HETATM   16  C14 UNK   900     -10.420 -12.039   2.085  1.00  0.00     0.074 A 
ENDROOT
BRANCH   9  17
HETATM   17  O2  UNK   900      -6.858 -10.186   7.649  1.00  0.00    -0.351 OA
HETATM   18  C15 UNK   900      -7.319 -11.083   8.655  1.00  0.00     0.210 C 
ENDBRANCH   9  17
BRANCH  12  19
HETATM   19  O5  UNK   900      -7.192  -7.741   8.891  1.00  0.00    -0.358 OA
HETATM   20  H8  UNK   900      -6.863  -6.830   8.803  1.00  0.00     0.217 HD
ENDBRANCH  12  19
BRANCH  11  21
HETATM   21  O4  UNK   900     -11.617 -10.008   2.004  1.00  0.00    -0.360 OA
HETATM   22  H7  UNK   900     -11.299  -9.718   1.135  1.00  0.00     0.217 HD
ENDBRANCH  11  21
BRANCH  15  23
HETATM   23  O6  UNK   900      -9.220 -14.101   2.149  1.00  0.00    -0.356 OA
HETATM   24  C16 UNK   900      -9.857 -15.215   2.773  1.00  0.00     0.210 C 
ENDBRANCH  15  23
TORSDOF 4
ENDMDL
MODEL 6
REMARK VINA RESULT:      -5.2     28.931     31.797
REMARK  4 active torsions:
REMARK  status: ('A' for Active; 'I' for Inactive)
REMARK    1  A    between atoms: O2_2  and  C7_13 
REMARK    2  A    between atoms: O4_4  and  C9_15 
REMARK    3  A    between atoms: O5_5  and  C10_16 
REMARK    4  A    between atoms: O6_6  and  C13_19 
ROOT
HETATM    1  O1  UNK   900      20.869  -5.439   5.799  1.00  0.00    -0.306 OA
HETATM    2  O3  UNK   900      22.848  -8.092   8.205  1.00  0.00    -0.286 OA
HETATM    3  C1  UNK   900      22.670  -7.062   6.089  1.00  0.00     0.058 A 
HETATM    4  C2  UNK   900      21.950  -6.144   5.327  1.00  0.00     0.127 A 
HETATM    5  C3  UNK   900      21.103  -6.535   7.969  1.00  0.00     0.082 A 
HETATM    6  C4  UNK   900      23.759  -7.743   5.537  1.00  0.00    -0.042 A 
HETATM    7  C5  UNK   900      22.262  -7.301   7.482  1.00  0.00     0.201 A 
HETATM    8  C6  UNK   900      20.473  -5.647   7.098  1.00  0.00     0.096 A 
HETATM    9  C7  UNK   900      22.319  -5.902   4.003  1.00  0.00     0.136 A 
HETATM   10  C8  UNK   900      24.124  -7.497   4.214  1.00  0.00     0.047 A 
HETATM   11  C9  UNK   900      20.642  -6.694   9.278  1.00  0.00     0.085 A 
HETATM   12  C10 UNK   900      23.406  -6.579   3.447  1.00  0.00     0.102 A 
HETATM   13  C11 UNK   900      19.372  -4.911   7.539  1.00  0.00     0.075 A 
HETATM   14  C12 UNK   900      24.581  -8.741   6.287  1.00  0.00     0.049 C 
HETATM   15  C13 UNK   900      18.908  -5.065   8.846  1.00  0.00     0.073 A 
HETATM   16  C14 UNK   900      19.541  -5.954   9.713  1.00  0.00     0.074 A 
ENDROOT
BRANCH   9  17
HETATM   17  O2  UNK   900      21.624  -5.006   3.245  1.00  0.00    -0.351 OA
HETATM   18  C15 UNK   900      22.114  -3.668   3.216  1.00  0.00     0.210 C 
ENDBRANCH   9  17
BRANCH  12  19
HETATM   19  O5  UNK   900      23.778  -6.351   2.156  1.00  0.00    -0.358 OA
HETATM   20  H8  UNK   900      23.493  -7.102   1.607  1.00  0.00     0.217 HD
ENDBRANCH  12  19
BRANCH  11  21
HETATM   21  O4  UNK   900      21.222  -7.546  10.168  1.00  0.00    -0.360 OA
HETATM   22  H7  UNK   900      20.617  -7.732  10.903  1.00  0.00     0.217 HD
ENDBRANCH  11  21
BRANCH  15  23
HETATM   23  O6  UNK   900      17.834  -4.346   9.274  1.00  0.00    -0.356 OA
HETATM   24  C16 UNK   900      16.573  -4.643   8.674  1.00  0.00     0.210 C 
ENDBRANCH  15  23
TORSDOF 4
ENDMDL
MODEL 7
REMARK VINA RESULT:      -5.1     27.951     28.918
REMARK  4 active torsions:
REMARK  status: ('A' for Active; 'I' for Inactive)
REMARK    1  A    between atoms: O2_2  and  C7_13 
REMARK    2  A    between atoms: O4_4  and  C9_15 
REMARK    3  A    between atoms: O5_5  and  C10_16 
REMARK    4  A    between atoms: O6_6  and  C13_19 
ROOT
HETATM    1  O1  UNK   900      12.737   8.756  -0.856  1.00  0.00    -0.306 OA
HETATM    2  O3  UNK   900      10.140   9.932   2.079  1.00  0.00    -0.286 OA
HETATM    3  C1  UNK   900      12.215   8.957   1.521  1.00  0.00     0.058 A 
HETATM    4  C2  UNK   900      13.050   8.581   0.470  1.00  0.00     0.127 A 
HETATM    5  C3  UNK   900      10.603   9.759  -0.219  1.00  0.00     0.082 A 
HETATM    6  C4  UNK   900      12.603   8.745   2.846  1.00  0.00    -0.042 A 
HETATM    7  C5  UNK   900      10.920   9.580   1.207  1.00  0.00     0.201 A 
HETATM    8  C6  UNK   900      11.532   9.336  -1.169  1.00  0.00     0.096 A 
HETATM    9  C7  UNK   900      14.284   7.988   0.744  1.00  0.00     0.136 A 
HETATM   10  C8  UNK   900      13.837   8.153   3.115  1.00  0.00     0.047 A 
HETATM   11  C9  UNK   900       9.396  10.342  -0.614  1.00  0.00     0.085 A 
HETATM   12  C10 UNK   900      14.676   7.775   2.067  1.00  0.00     0.102 A 
HETATM   13  C11 UNK   900      11.252   9.497  -2.527  1.00  0.00     0.075 A 
HETATM   14  C12 UNK   900      11.767   9.120   4.027  1.00  0.00     0.049 C 
HETATM   15  C13 UNK   900      10.049  10.079  -2.928  1.00  0.00     0.073 A 
HETATM   16  C14 UNK   900       9.123  10.500  -1.974  1.00  0.00     0.074 A 
ENDROOT
BRANCH   9  17
HETATM   17  O2  UNK   900      15.112   7.615  -0.274  1.00  0.00    -0.351 OA
HETATM   18  C15 UNK   900      16.075   8.572  -0.706  1.00  0.00     0.210 C 
ENDBRANCH   9  17
BRANCH  12  19
HETATM   19  O5  UNK   900      15.878   7.198   2.348  1.00  0.00    -0.358 OA
HETATM   20  H8  UNK   900      16.353   7.750   2.993  1.00  0.00     0.217 HD
ENDBRANCH  12  19
BRANCH  11  21
HETATM   21  O4  UNK   900       8.457  10.772   0.273  1.00  0.00    -0.360 OA
HETATM   22  H7  UNK   900       7.565  10.599  -0.066  1.00  0.00     0.217 HD
ENDBRANCH  11  21
BRANCH  15  23
HETATM   23  O6  UNK   900       9.778  10.234  -4.253  1.00  0.00    -0.356 OA
HETATM   24  C16 UNK   900      10.797   9.846  -5.174  1.00  0.00     0.210 C 
ENDBRANCH  15  23
TORSDOF 4
ENDMDL
MODEL 8
REMARK VINA RESULT:      -5.0     27.816     29.152
REMARK  4 active torsions:
REMARK  status: ('A' for Active; 'I' for Inactive)
REMARK    1  A    between atoms: O2_2  and  C7_13 
REMARK    2  A    between atoms: O4_4  and  C9_15 
REMARK    3  A    between atoms: O5_5  and  C10_16 
REMARK    4  A    between atoms: O6_6  and  C13_19 
ROOT
HETATM    1  O1  UNK   900      12.502   8.621  -0.984  1.00  0.00    -0.306 OA
HETATM    2  O3  UNK   900       9.719  10.523   1.334  1.00  0.00    -0.286 OA
HETATM    3  C1  UNK   900      10.451   9.936  -0.831  1.00  0.00     0.058 A 
HETATM    4  C2  UNK   900      11.435   9.269  -1.557  1.00  0.00     0.127 A 
HETATM    5  C3  UNK   900      11.695   9.256   1.232  1.00  0.00     0.082 A 
HETATM    6  C4  UNK   900       9.395  10.575  -1.487  1.00  0.00    -0.042 A 
HETATM    7  C5  UNK   900      10.546   9.957   0.637  1.00  0.00     0.201 A 
HETATM    8  C6  UNK   900      12.608   8.628   0.385  1.00  0.00     0.096 A 
HETATM    9  C7  UNK   900      11.365   9.237  -2.951  1.00  0.00     0.136 A 
HETATM   10  C8  UNK   900       9.329  10.539  -2.880  1.00  0.00     0.047 A 
HETATM   11  C9  UNK   900      11.870   9.220   2.618  1.00  0.00     0.085 A 
HETATM   12  C10 UNK   900      10.311   9.873  -3.611  1.00  0.00     0.102 A 
HETATM   13  C11 UNK   900      13.705   7.957   0.929  1.00  0.00     0.075 A 
HETATM   14  C12 UNK   900       8.301  11.311  -0.782  1.00  0.00     0.049 C 
HETATM   15  C13 UNK   900      13.884   7.918   2.312  1.00  0.00     0.073 A 
HETATM   16  C14 UNK   900      12.969   8.548   3.155  1.00  0.00     0.074 A 
ENDROOT
BRANCH   9  17
HETATM   17  O2  UNK   900      12.321   8.587  -3.676  1.00  0.00    -0.351 OA
HETATM   18  C15 UNK   900      13.432   9.361  -4.118  1.00  0.00     0.210 C 
ENDBRANCH   9  17
BRANCH  12  19
HETATM   19  O5  UNK   900      10.231   9.848  -4.971  1.00  0.00    -0.358 OA
HETATM   20  H8  UNK   900      11.126   9.925  -5.344  1.00  0.00     0.217 HD
ENDBRANCH  12  19
BRANCH  11  21
HETATM   21  O4  UNK   900      11.008   9.817   3.487  1.00  0.00    -0.360 OA
HETATM   22  H7  UNK   900      11.340   9.747   4.396  1.00  0.00     0.217 HD
ENDBRANCH  11  21
BRANCH  15  23
HETATM   23  O6  UNK   900      14.956   7.264   2.840  1.00  0.00    -0.356 OA
HETATM   24  C16 UNK   900      15.187   5.929   2.391  1.00  0.00     0.210 C 
ENDBRANCH  15  23
TORSDOF 4
ENDMDL
MODEL 9
REMARK VINA RESULT:      -4.9     16.692     19.322
REMARK  4 active torsions:
REMARK  status: ('A' for Active; 'I' for Inactive)
REMARK    1  A    between atoms: O2_2  and  C7_13 
REMARK    2  A    between atoms: O4_4  and  C9_15 
REMARK    3  A    between atoms: O5_5  and  C10_16 
REMARK    4  A    between atoms: O6_6  and  C13_19 
ROOT
HETATM    1  O1  UNK   900       6.290 -11.987  -2.296  1.00  0.00    -0.306 OA
HETATM    2  O3  UNK   900       5.264  -8.581  -0.275  1.00  0.00    -0.286 OA
HETATM    3  C1  UNK   900       4.975  -9.933  -2.187  1.00  0.00     0.058 A 
HETATM    4  C2  UNK   900       5.371 -11.110  -2.820  1.00  0.00     0.127 A 
HETATM    5  C3  UNK   900       6.547 -10.549  -0.339  1.00  0.00     0.082 A 
HETATM    6  C4  UNK   900       4.034  -9.089  -2.784  1.00  0.00    -0.042 A 
HETATM    7  C5  UNK   900       5.565  -9.596  -0.883  1.00  0.00     0.201 A 
HETATM    8  C6  UNK   900       6.853 -11.691  -1.079  1.00  0.00     0.096 A 
HETATM    9  C7  UNK   900       4.824 -11.448  -4.058  1.00  0.00     0.136 A 
HETATM   10  C8  UNK   900       3.489  -9.432  -4.021  1.00  0.00     0.047 A 
HETATM   11  C9  UNK   900       7.161 -10.315   0.894  1.00  0.00     0.085 A 
HETATM   12  C10 UNK   900       3.883 -10.609  -4.658  1.00  0.00     0.102 A 
HETATM   13  C11 UNK   900       7.781 -12.607  -0.582  1.00  0.00     0.075 A 
HETATM   14  C12 UNK   900       3.557  -7.811  -2.172  1.00  0.00     0.049 C 
HETATM   15  C13 UNK   900       8.397 -12.379   0.649  1.00  0.00     0.073 A 
HETATM   16  C14 UNK   900       8.088 -11.236   1.385  1.00  0.00     0.074 A 
ENDROOT
BRANCH   9  17
HETATM   17  O2  UNK   900       5.202 -12.598  -4.689  1.00  0.00    -0.351 OA
HETATM   18  C15 UNK   900       6.287 -12.502  -5.608  1.00  0.00     0.210 C 
ENDBRANCH   9  17
BRANCH  12  19
HETATM   19  O5  UNK   900       3.341 -10.929  -5.866  1.00  0.00    -0.358 OA
HETATM   20  H8  UNK   900       3.339 -11.896  -5.968  1.00  0.00     0.217 HD
ENDBRANCH  12  19
BRANCH  11  21
HETATM   21  O4  UNK   900       6.898  -9.217   1.655  1.00  0.00    -0.360 OA
HETATM   22  H7  UNK   900       6.195  -9.409   2.295  1.00  0.00     0.217 HD
ENDBRANCH  11  21
BRANCH  15  23
HETATM   23  O6  UNK   900       9.303 -13.274   1.131  1.00  0.00    -0.356 OA
HETATM   24  C16 UNK   900       8.952 -14.656   1.056  1.00  0.00     0.210 C 
ENDBRANCH  15  23
TORSDOF 4
ENDMDL
