MODEL 1
REMARK VINA RESULT:      -5.9      0.000      0.000
REMARK  7 active torsions:
REMARK  status: ('A' for Active; 'I' for Inactive)
REMARK    1  A    between atoms: O2_2  and  C4_12 
REMARK    2  A    between atoms: O2_2  and  C6_14 
REMARK    3  A    between atoms: O3_3  and  C1_9 
REMARK    4  A    between atoms: O4_4  and  C2_10 
REMARK    5  A    between atoms: O5_5  and  C5_13 
REMARK    6  A    between atoms: O6_6  and  C14_22 
REMARK    7  A    between atoms: C3_11  and  C5_13 
ROOT
HETATM    1  N1  UNK   900       5.601  -9.461   1.242  1.00  0.00    -0.241 NA
HETATM    2  N2  UNK   900       6.831 -10.600  -0.945  1.00  0.00    -0.241 NA
HETATM    3  C6  UNK   900       7.034 -10.685   2.687  1.00  0.00     0.103 A 
HETATM    4  C7  UNK   900       6.603 -10.339   1.409  1.00  0.00     0.119 A 
HETATM    5  C8  UNK   900       8.074 -11.593   2.880  1.00  0.00     0.039 A 
HETATM    6  C9  UNK   900       7.228 -10.917   0.298  1.00  0.00     0.089 A 
HETATM    7  C10 UNK   900       8.693 -12.166   1.779  1.00  0.00     0.005 A 
HETATM    8  C11 UNK   900       8.267 -11.825   0.498  1.00  0.00     0.034 A 
HETATM    9  C12 UNK   900       5.204  -9.145  -0.000  1.00  0.00     0.089 A 
HETATM   10  C13 UNK   900       5.829  -9.722  -1.111  1.00  0.00     0.119 A 
HETATM   11  C14 UNK   900       5.398  -9.376  -2.390  1.00  0.00     0.096 A 
HETATM   12  C15 UNK   900       4.166  -8.237  -0.200  1.00  0.00     0.034 A 
HETATM   13  C16 UNK   900       4.359  -8.468  -2.584  1.00  0.00     0.039 A 
HETATM   14  C17 UNK   900       3.739  -7.895  -1.482  1.00  0.00     0.005 A 
ENDROOT
BRANCH   3  15
HETATM   15  O2  UNK   900       6.438 -10.133   3.786  1.00  0.00    -0.315 OA
BRANCH  15  16
HETATM   16  C4  UNK   900       5.726 -11.018   4.644  1.00  0.00     0.298 C 
HETATM   17  O1  UNK   900       5.246 -10.319   5.802  1.00  0.00    -0.348 OA
HETATM   18  C3  UNK   900       3.839 -10.048   5.646  1.00  0.00     0.179 C 
HETATM   19  C1  UNK   900       3.425 -10.592   4.280  1.00  0.00     0.182 C 
HETATM   20  C2  UNK   900       4.505 -11.602   3.951  1.00  0.00     0.205 C 
BRANCH  18  21
HETATM   21  C5  UNK   900       3.108 -10.715   6.802  1.00  0.00     0.198 C 
BRANCH  21  22
HETATM   22  O5  UNK   900       2.044 -11.496   6.282  1.00  0.00    -0.398 OA
HETATM   23  H9  UNK   900       1.649 -10.991   5.551  1.00  0.00     0.209 HD
ENDBRANCH  21  22
ENDBRANCH  18  21
BRANCH  19  24
HETATM   24  O3  UNK   900       3.481  -9.542   3.319  1.00  0.00    -0.390 OA
HETATM   25  H7  UNK   900       4.363  -9.138   3.380  1.00  0.00     0.210 HD
ENDBRANCH  19  24
BRANCH  20  26
HETATM   26  O4  UNK   900       4.166 -12.852   4.539  1.00  0.00    -0.388 OA
HETATM   27  H8  UNK   900       4.977 -13.220   4.927  1.00  0.00     0.210 HD
ENDBRANCH  20  26
ENDBRANCH  15  16
ENDBRANCH   3  15
BRANCH  11  28
HETATM   28  O6  UNK   900       5.995  -9.928  -3.489  1.00  0.00    -0.358 OA
HETATM   29  H16 UNK   900       6.960  -9.859  -3.395  1.00  0.00     0.217 HD
ENDBRANCH  11  28
TORSDOF 7
ENDMDL
MODEL 2
REMARK VINA RESULT:      -5.9     14.722     15.840
REMARK  7 active torsions:
REMARK  status: ('A' for Active; 'I' for Inactive)
REMARK    1  A    between atoms: O2_2  and  C4_12 
REMARK    2  A    between atoms: O2_2  and  C6_14 
REMARK    3  A    between atoms: O3_3  and  C1_9 
REMARK    4  A    between atoms: O4_4  and  C2_10 
REMARK    5  A    between atoms: O5_5  and  C5_13 
REMARK    6  A    between atoms: O6_6  and  C14_22 
REMARK    7  A    between atoms: C3_11  and  C5_13 
ROOT
HETATM    1  N1  UNK   900      -9.747 -10.162   5.840  1.00  0.00    -0.241 NA
HETATM    2  N2  UNK   900      -9.813  -9.457   3.178  1.00  0.00    -0.241 NA
HETATM    3  C6  UNK   900     -10.256  -7.923   6.447  1.00  0.00     0.103 A 
HETATM    4  C7  UNK   900     -10.011  -8.896   5.481  1.00  0.00     0.119 A 
HETATM    5  C8  UNK   900     -10.534  -6.604   6.094  1.00  0.00     0.039 A 
HETATM    6  C9  UNK   900     -10.045  -8.538   4.129  1.00  0.00     0.089 A 
HETATM    7  C10 UNK   900     -10.568  -6.249   4.754  1.00  0.00     0.005 A 
HETATM    8  C11 UNK   900     -10.324  -7.217   3.781  1.00  0.00     0.034 A 
HETATM    9  C12 UNK   900      -9.514 -11.080   4.890  1.00  0.00     0.089 A 
HETATM   10  C13 UNK   900      -9.547 -10.723   3.538  1.00  0.00     0.119 A 
HETATM   11  C14 UNK   900      -9.303 -11.695   2.571  1.00  0.00     0.096 A 
HETATM   12  C15 UNK   900      -9.235 -12.401   5.237  1.00  0.00     0.034 A 
HETATM   13  C16 UNK   900      -9.025 -13.015   2.924  1.00  0.00     0.039 A 
HETATM   14  C17 UNK   900      -8.991 -13.369   4.265  1.00  0.00     0.005 A 
ENDROOT
BRANCH   3  15
HETATM   15  O2  UNK   900     -10.228  -8.251   7.774  1.00  0.00    -0.315 OA
BRANCH  15  16
HETATM   16  C4  UNK   900      -9.192  -7.668   8.558  1.00  0.00     0.298 C 
HETATM   17  O1  UNK   900      -9.434  -7.889   9.956  1.00  0.00    -0.348 OA
HETATM   18  C3  UNK   900      -8.584  -8.953  10.424  1.00  0.00     0.179 C 
HETATM   19  C1  UNK   900      -7.779  -9.448   9.225  1.00  0.00     0.182 C 
HETATM   20  C2  UNK   900      -7.841  -8.293   8.247  1.00  0.00     0.205 C 
BRANCH  18  21
HETATM   21  C5  UNK   900      -7.713  -8.393  11.540  1.00  0.00     0.198 C 
BRANCH  21  22
HETATM   22  O5  UNK   900      -7.695  -6.978  11.440  1.00  0.00    -0.398 OA
HETATM   23  H9  UNK   900      -8.464  -6.647  11.935  1.00  0.00     0.209 HD
ENDBRANCH  21  22
ENDBRANCH  18  21
BRANCH  19  24
HETATM   24  O3  UNK   900      -8.442 -10.568   8.643  1.00  0.00    -0.390 OA
HETATM   25  H7  UNK   900      -9.282 -10.687   9.117  1.00  0.00     0.210 HD
ENDBRANCH  19  24
BRANCH  20  26
HETATM   26  O4  UNK   900      -6.801  -7.372   8.551  1.00  0.00    -0.388 OA
HETATM   27  H8  UNK   900      -6.019  -7.637   8.039  1.00  0.00     0.210 HD
ENDBRANCH  20  26
ENDBRANCH  15  16
ENDBRANCH   3  15
BRANCH  11  28
HETATM   28  O6  UNK   900      -9.332 -11.368   1.244  1.00  0.00    -0.358 OA
HETATM   29  H16 UNK   900      -9.243 -10.404   1.153  1.00  0.00     0.217 HD
ENDBRANCH  11  28
TORSDOF 7
ENDMDL
MODEL 3
REMARK VINA RESULT:      -5.6     16.682     19.000
REMARK  7 active torsions:
REMARK  status: ('A' for Active; 'I' for Inactive)
REMARK    1  A    between atoms: O2_2  and  C4_12 
REMARK    2  A    between atoms: O2_2  and  C6_14 
REMARK    3  A    between atoms: O3_3  and  C1_9 
REMARK    4  A    between atoms: O4_4  and  C2_10 
REMARK    5  A    between atoms: O5_5  and  C5_13 
REMARK    6  A    between atoms: O6_6  and  C14_22 
REMARK    7  A    between atoms: C3_11  and  C5_13 
ROOT
HETATM    1  N1  UNK   900      21.116  -5.572   5.905  1.00  0.00    -0.241 NA
HETATM    2  N2  UNK   900      21.876  -7.516   7.704  1.00  0.00    -0.241 NA
HETATM    3  C6  UNK   900      22.737  -6.366   4.362  1.00  0.00     0.103 A 
HETATM    4  C7  UNK   900      22.095  -6.438   5.595  1.00  0.00     0.119 A 
HETATM    5  C8  UNK   900      23.755  -7.255   4.021  1.00  0.00     0.039 A 
HETATM    6  C9  UNK   900      22.480  -7.424   6.509  1.00  0.00     0.089 A 
HETATM    7  C10 UNK   900      24.137  -8.234   4.927  1.00  0.00     0.005 A 
HETATM    8  C11 UNK   900      23.498  -8.312   6.163  1.00  0.00     0.034 A 
HETATM    9  C12 UNK   900      20.512  -5.663   7.100  1.00  0.00     0.089 A 
HETATM   10  C13 UNK   900      20.898  -6.649   8.014  1.00  0.00     0.119 A 
HETATM   11  C14 UNK   900      20.254  -6.722   9.248  1.00  0.00     0.096 A 
HETATM   12  C15 UNK   900      19.495  -4.776   7.446  1.00  0.00     0.034 A 
HETATM   13  C16 UNK   900      19.237  -5.832   9.588  1.00  0.00     0.039 A 
HETATM   14  C17 UNK   900      18.855  -4.853   8.682  1.00  0.00     0.005 A 
ENDROOT
BRANCH   3  15
HETATM   15  O2  UNK   900      22.377  -5.410   3.454  1.00  0.00    -0.315 OA
BRANCH  15  16
HETATM   16  C4  UNK   900      23.432  -4.760   2.752  1.00  0.00     0.298 C 
HETATM   17  O1  UNK   900      22.987  -4.338   1.454  1.00  0.00    -0.348 OA
HETATM   18  C3  UNK   900      22.724  -2.922   1.476  1.00  0.00     0.179 C 
HETATM   19  C1  UNK   900      22.997  -2.436   2.898  1.00  0.00     0.182 C 
HETATM   20  C2  UNK   900      23.895  -3.507   3.480  1.00  0.00     0.205 C 
BRANCH  18  21
HETATM   21  C5  UNK   900      23.624  -2.268   0.437  1.00  0.00     0.198 C 
BRANCH  21  22
HETATM   22  O5  UNK   900      24.716  -3.132   0.167  1.00  0.00    -0.398 OA
HETATM   23  H9  UNK   900      24.355  -3.917  -0.282  1.00  0.00     0.209 HD
ENDBRANCH  21  22
ENDBRANCH  18  21
BRANCH  19  24
HETATM   24  O3  UNK   900      21.776  -2.423   3.633  1.00  0.00    -0.390 OA
HETATM   25  H7  UNK   900      21.669  -1.531   4.004  1.00  0.00     0.210 HD
ENDBRANCH  19  24
BRANCH  20  26
HETATM   26  O4  UNK   900      25.244  -3.219   3.134  1.00  0.00    -0.388 OA
HETATM   27  H8  UNK   900      25.634  -4.034   2.775  1.00  0.00     0.210 HD
ENDBRANCH  20  26
ENDBRANCH  15  16
ENDBRANCH   3  15
BRANCH  11  28
HETATM   28  O6  UNK   900      20.615  -7.678  10.155  1.00  0.00    -0.358 OA
HETATM   29  H16 UNK   900      20.102  -8.487   9.986  1.00  0.00     0.217 HD
ENDBRANCH  11  28
TORSDOF 7
ENDMDL
MODEL 4
REMARK VINA RESULT:      -5.5     20.581     23.618
REMARK  7 active torsions:
REMARK  status: ('A' for Active; 'I' for Inactive)
REMARK    1  A    between atoms: O2_2  and  C4_12 
REMARK    2  A    between atoms: O2_2  and  C6_14 
REMARK    3  A    between atoms: O3_3  and  C1_9 
REMARK    4  A    between atoms: O4_4  and  C2_10 
REMARK    5  A    between atoms: O5_5  and  C5_13 
REMARK    6  A    between atoms: O6_6  and  C14_22 
REMARK    7  A    between atoms: C3_11  and  C5_13 
ROOT
HETATM    1  N1  UNK   900      -4.901   2.060 -14.934  1.00  0.00    -0.241 NA
HETATM    2  N2  UNK   900      -3.086   1.868 -12.870  1.00  0.00    -0.241 NA
HETATM    3  C6  UNK   900      -5.465  -0.230 -14.653  1.00  0.00     0.103 A 
HETATM    4  C7  UNK   900      -4.729   0.895 -14.289  1.00  0.00     0.119 A 
HETATM    5  C8  UNK   900      -5.301  -1.448 -13.994  1.00  0.00     0.039 A 
HETATM    6  C9  UNK   900      -3.807   0.799 -13.240  1.00  0.00     0.089 A 
HETATM    7  C10 UNK   900      -4.387  -1.544 -12.955  1.00  0.00     0.005 A 
HETATM    8  C11 UNK   900      -3.648  -0.422 -12.585  1.00  0.00     0.034 A 
HETATM    9  C12 UNK   900      -4.180   3.129 -14.564  1.00  0.00     0.089 A 
HETATM   10  C13 UNK   900      -3.258   3.033 -13.516  1.00  0.00     0.119 A 
HETATM   11  C14 UNK   900      -2.523   4.158 -13.151  1.00  0.00     0.096 A 
HETATM   12  C15 UNK   900      -4.339   4.349 -15.219  1.00  0.00     0.034 A 
HETATM   13  C16 UNK   900      -2.687   5.375 -13.810  1.00  0.00     0.039 A 
HETATM   14  C17 UNK   900      -3.600   5.471 -14.850  1.00  0.00     0.005 A 
ENDROOT
BRANCH   3  15
HETATM   15  O2  UNK   900      -6.370  -0.158 -15.674  1.00  0.00    -0.315 OA
BRANCH  15  16
HETATM   16  C4  UNK   900      -7.747  -0.221 -15.318  1.00  0.00     0.298 C 
HETATM   17  O1  UNK   900      -8.507   0.730 -16.079  1.00  0.00    -0.348 OA
HETATM   18  C3  UNK   900      -9.205   0.045 -17.137  1.00  0.00     0.179 C 
HETATM   19  C1  UNK   900      -8.827  -1.432 -17.044  1.00  0.00     0.182 C 
HETATM   20  C2  UNK   900      -8.338  -1.590 -15.619  1.00  0.00     0.205 C 
BRANCH  18  21
HETATM   21  C5  UNK   900     -10.695   0.295 -16.946  1.00  0.00     0.198 C 
BRANCH  21  22
HETATM   22  O5  UNK   900     -10.916   0.762 -15.625  1.00  0.00    -0.398 OA
HETATM   23  H9  UNK   900     -10.454   0.151 -15.025  1.00  0.00     0.209 HD
ENDBRANCH  21  22
ENDBRANCH  18  21
BRANCH  19  24
HETATM   24  O3  UNK   900      -7.740  -1.696 -17.926  1.00  0.00    -0.390 OA
HETATM   25  H7  UNK   900      -7.242  -2.445 -17.559  1.00  0.00     0.210 HD
ENDBRANCH  19  24
BRANCH  20  26
HETATM   26  O4  UNK   900      -9.452  -1.833 -14.770  1.00  0.00    -0.388 OA
HETATM   27  H8  UNK   900     -10.124  -1.161 -14.971  1.00  0.00     0.210 HD
ENDBRANCH  20  26
ENDBRANCH  15  16
ENDBRANCH   3  15
BRANCH  11  28
HETATM   28  O6  UNK   900      -1.618   4.086 -12.130  1.00  0.00    -0.358 OA
HETATM   29  H16 UNK   900      -1.420   3.152 -11.945  1.00  0.00     0.217 HD
ENDBRANCH  11  28
TORSDOF 7
ENDMDL
MODEL 5
REMARK VINA RESULT:      -5.4     14.715     16.594
REMARK  7 active torsions:
REMARK  status: ('A' for Active; 'I' for Inactive)
REMARK    1  A    between atoms: O2_2  and  C4_12 
REMARK    2  A    between atoms: O2_2  and  C6_14 
REMARK    3  A    between atoms: O3_3  and  C1_9 
REMARK    4  A    between atoms: O4_4  and  C2_10 
REMARK    5  A    between atoms: O5_5  and  C5_13 
REMARK    6  A    between atoms: O6_6  and  C14_22 
REMARK    7  A    between atoms: C3_11  and  C5_13 
ROOT
HETATM    1  N1  UNK   900      -8.480  -9.531   6.439  1.00  0.00    -0.241 NA
HETATM    2  N2  UNK   900      -9.261  -7.395   7.995  1.00  0.00    -0.241 NA
HETATM    3  C6  UNK   900      -9.485  -8.516   4.541  1.00  0.00     0.103 A 
HETATM    4  C7  UNK   900      -9.163  -8.510   5.896  1.00  0.00     0.119 A 
HETATM    5  C8  UNK   900     -10.191  -7.466   3.959  1.00  0.00     0.039 A 
HETATM    6  C9  UNK   900      -9.559  -7.426   6.687  1.00  0.00     0.089 A 
HETATM    7  C10 UNK   900     -10.584  -6.391   4.742  1.00  0.00     0.005 A 
HETATM    8  C11 UNK   900     -10.266  -6.378   6.099  1.00  0.00     0.034 A 
HETATM    9  C12 UNK   900      -8.183  -9.501   7.747  1.00  0.00     0.089 A 
HETATM   10  C13 UNK   900      -8.579  -8.417   8.538  1.00  0.00     0.119 A 
HETATM   11  C14 UNK   900      -8.257  -8.409   9.893  1.00  0.00     0.096 A 
HETATM   12  C15 UNK   900      -7.477 -10.548   8.335  1.00  0.00     0.034 A 
HETATM   13  C16 UNK   900      -7.550  -9.460  10.476  1.00  0.00     0.039 A 
HETATM   14  C17 UNK   900      -7.158 -10.536   9.692  1.00  0.00     0.005 A 
ENDROOT
BRANCH   3  15
HETATM   15  O2  UNK   900      -9.108  -9.566   3.751  1.00  0.00    -0.315 OA
BRANCH  15  16
HETATM   16  C4  UNK   900     -10.149 -10.285   3.097  1.00  0.00     0.298 C 
HETATM   17  O1  UNK   900      -9.670 -10.864   1.875  1.00  0.00    -0.348 OA
HETATM   18  C3  UNK   900      -9.428 -12.270   2.076  1.00  0.00     0.179 C 
HETATM   19  C1  UNK   900      -9.752 -12.578   3.536  1.00  0.00     0.182 C 
HETATM   20  C2  UNK   900     -10.653 -11.435   3.955  1.00  0.00     0.205 C 
BRANCH  18  21
HETATM   21  C5  UNK   900     -10.304 -13.036   1.094  1.00  0.00     0.198 C 
BRANCH  21  22
HETATM   22  O5  UNK   900     -10.603 -12.193  -0.007  1.00  0.00    -0.398 OA
HETATM   23  H9  UNK   900     -10.918 -12.765  -0.728  1.00  0.00     0.209 HD
ENDBRANCH  21  22
ENDBRANCH  18  21
BRANCH  19  24
HETATM   24  O3  UNK   900      -8.555 -12.515   4.307  1.00  0.00    -0.390 OA
HETATM   25  H7  UNK   900      -7.988 -13.252   4.025  1.00  0.00     0.210 HD
ENDBRANCH  19  24
BRANCH  20  26
HETATM   26  O4  UNK   900     -11.994 -11.749   3.603  1.00  0.00    -0.388 OA
HETATM   27  H8  UNK   900     -12.026 -12.697   3.390  1.00  0.00     0.210 HD
ENDBRANCH  20  26
ENDBRANCH  15  16
ENDBRANCH   3  15
BRANCH  11  28
HETATM   28  O6  UNK   900      -8.633  -7.360  10.684  1.00  0.00    -0.358 OA
HETATM   29  H16 UNK   900      -9.569  -7.157  10.517  1.00  0.00     0.217 HD
ENDBRANCH  11  28
TORSDOF 7
ENDMDL
MODEL 6
REMARK VINA RESULT:      -5.4     25.298     27.615
REMARK  7 active torsions:
REMARK  status: ('A' for Active; 'I' for Inactive)
REMARK    1  A    between atoms: O2_2  and  C4_12 
REMARK    2  A    between atoms: O2_2  and  C6_14 
REMARK    3  A    between atoms: O3_3  and  C1_9 
REMARK    4  A    between atoms: O4_4  and  C2_10 
REMARK    5  A    between atoms: O5_5  and  C5_13 
REMARK    6  A    between atoms: O6_6  and  C14_22 
REMARK    7  A    between atoms: C3_11  and  C5_13 
ROOT
HETATM    1  N1  UNK   900      -6.780  13.254   5.322  1.00  0.00    -0.241 NA
HETATM    2  N2  UNK   900      -7.077  11.904   7.705  1.00  0.00    -0.241 NA
HETATM    3  C6  UNK   900      -9.133  13.208   5.001  1.00  0.00     0.103 A 
HETATM    4  C7  UNK   900      -8.001  12.899   5.752  1.00  0.00     0.119 A 
HETATM    5  C8  UNK   900     -10.409  12.849   5.431  1.00  0.00     0.039 A 
HETATM    6  C9  UNK   900      -8.151  12.213   6.962  1.00  0.00     0.089 A 
HETATM    7  C10 UNK   900     -10.558  12.169   6.631  1.00  0.00     0.005 A 
HETATM    8  C11 UNK   900      -9.430  11.857   7.387  1.00  0.00     0.034 A 
HETATM    9  C12 UNK   900      -5.706  12.945   6.064  1.00  0.00     0.089 A 
HETATM   10  C13 UNK   900      -5.856  12.259   7.274  1.00  0.00     0.119 A 
HETATM   11  C14 UNK   900      -4.725  11.950   8.026  1.00  0.00     0.096 A 
HETATM   12  C15 UNK   900      -4.428  13.301   5.639  1.00  0.00     0.034 A 
HETATM   13  C16 UNK   900      -3.449  12.310   7.596  1.00  0.00     0.039 A 
HETATM   14  C17 UNK   900      -3.299  12.989   6.395  1.00  0.00     0.005 A 
ENDROOT
BRANCH   3  15
HETATM   15  O2  UNK   900      -9.009  13.877   3.815  1.00  0.00    -0.315 OA
BRANCH  15  16
HETATM   16  C4  UNK   900      -8.796  13.086   2.650  1.00  0.00     0.298 C 
HETATM   17  O1  UNK   900     -10.020  12.929   1.918  1.00  0.00    -0.348 OA
HETATM   18  C3  UNK   900     -10.013  13.813   0.781  1.00  0.00     0.179 C 
HETATM   19  C1  UNK   900      -8.703  14.596   0.828  1.00  0.00     0.182 C 
HETATM   20  C2  UNK   900      -7.805  13.747   1.704  1.00  0.00     0.205 C 
BRANCH  18  21
HETATM   21  C5  UNK   900     -10.154  12.958  -0.471  1.00  0.00     0.198 C 
BRANCH  21  22
HETATM   22  O5  UNK   900      -9.773  11.627  -0.162  1.00  0.00    -0.398 OA
HETATM   23  H9  UNK   900     -10.079  11.445   0.743  1.00  0.00     0.209 HD
ENDBRANCH  21  22
ENDBRANCH  18  21
BRANCH  19  24
HETATM   24  O3  UNK   900      -8.924  15.843   1.482  1.00  0.00    -0.390 OA
HETATM   25  H7  UNK   900      -8.786  16.545   0.825  1.00  0.00     0.210 HD
ENDBRANCH  19  24
BRANCH  20  26
HETATM   26  O4  UNK   900      -7.172  12.760   0.900  1.00  0.00    -0.388 OA
HETATM   27  H8  UNK   900      -7.731  11.965   0.920  1.00  0.00     0.210 HD
ENDBRANCH  20  26
ENDBRANCH  15  16
ENDBRANCH   3  15
BRANCH  11  28
HETATM   28  O6  UNK   900      -4.849  11.282   9.211  1.00  0.00    -0.358 OA
HETATM   29  H16 UNK   900      -5.561  11.689   9.733  1.00  0.00     0.217 HD
ENDBRANCH  11  28
TORSDOF 7
ENDMDL
MODEL 7
REMARK VINA RESULT:      -5.4      2.911      4.707
REMARK  7 active torsions:
REMARK  status: ('A' for Active; 'I' for Inactive)
REMARK    1  A    between atoms: O2_2  and  C4_12 
REMARK    2  A    between atoms: O2_2  and  C6_14 
REMARK    3  A    between atoms: O3_3  and  C1_9 
REMARK    4  A    between atoms: O4_4  and  C2_10 
REMARK    5  A    between atoms: O5_5  and  C5_13 
REMARK    6  A    between atoms: O6_6  and  C14_22 
REMARK    7  A    between atoms: C3_11  and  C5_13 
ROOT
HETATM    1  N1  UNK   900       3.840 -11.859  -1.181  1.00  0.00    -0.241 NA
HETATM    2  N2  UNK   900       4.409 -11.024  -3.745  1.00  0.00    -0.241 NA
HETATM    3  C6  UNK   900       3.498  -9.603  -0.521  1.00  0.00     0.103 A 
HETATM    4  C7  UNK   900       3.814 -10.553  -1.490  1.00  0.00     0.119 A 
HETATM    5  C8  UNK   900       3.464  -8.243  -0.823  1.00  0.00     0.039 A 
HETATM    6  C9  UNK   900       4.102 -10.129  -2.792  1.00  0.00     0.089 A 
HETATM    7  C10 UNK   900       3.750  -7.823  -2.113  1.00  0.00     0.005 A 
HETATM    8  C11 UNK   900       4.066  -8.767  -3.088  1.00  0.00     0.034 A 
HETATM    9  C12 UNK   900       4.147 -12.754  -2.133  1.00  0.00     0.089 A 
HETATM   10  C13 UNK   900       4.436 -12.331  -3.435  1.00  0.00     0.119 A 
HETATM   11  C14 UNK   900       4.751 -13.280  -4.404  1.00  0.00     0.096 A 
HETATM   12  C15 UNK   900       4.184 -14.115  -1.837  1.00  0.00     0.034 A 
HETATM   13  C16 UNK   900       4.785 -14.640  -4.103  1.00  0.00     0.039 A 
HETATM   14  C17 UNK   900       4.500 -15.060  -2.811  1.00  0.00     0.005 A 
ENDROOT
BRANCH   3  15
HETATM   15  O2  UNK   900       3.213  -9.995   0.757  1.00  0.00    -0.315 OA
BRANCH  15  16
HETATM   16  C4  UNK   900       4.099  -9.549   1.779  1.00  0.00     0.298 C 
HETATM   17  O1  UNK   900       3.658 -10.012   3.064  1.00  0.00    -0.348 OA
HETATM   18  C3  UNK   900       4.465 -11.134   3.469  1.00  0.00     0.179 C 
HETATM   19  C1  UNK   900       5.457 -11.407   2.340  1.00  0.00     0.182 C 
HETATM   20  C2  UNK   900       5.503 -10.100   1.576  1.00  0.00     0.205 C 
BRANCH  18  21
HETATM   21  C5  UNK   900       5.140 -10.770   4.784  1.00  0.00     0.198 C 
BRANCH  21  22
HETATM   22  O5  UNK   900       4.448  -9.676   5.366  1.00  0.00    -0.398 OA
HETATM   23  H9  UNK   900       5.078  -9.216   5.947  1.00  0.00     0.209 HD
ENDBRANCH  21  22
ENDBRANCH  18  21
BRANCH  19  24
HETATM   24  O3  UNK   900       4.928 -12.413   1.481  1.00  0.00    -0.390 OA
HETATM   25  H7  UNK   900       4.715 -11.989   0.633  1.00  0.00     0.210 HD
ENDBRANCH  19  24
BRANCH  20  26
HETATM   26  O4  UNK   900       6.453  -9.237   2.189  1.00  0.00    -0.388 OA
HETATM   27  H8  UNK   900       6.790  -8.640   1.501  1.00  0.00     0.210 HD
ENDBRANCH  20  26
ENDBRANCH  15  16
ENDBRANCH   3  15
BRANCH  11  28
HETATM   28  O6  UNK   900       5.036 -12.888  -5.682  1.00  0.00    -0.358 OA
HETATM   29  H16 UNK   900       5.514 -12.042  -5.657  1.00  0.00     0.217 HD
ENDBRANCH  11  28
TORSDOF 7
ENDMDL
MODEL 8
REMARK VINA RESULT:      -5.3      9.800     12.097
REMARK  7 active torsions:
REMARK  status: ('A' for Active; 'I' for Inactive)
REMARK    1  A    between atoms: O2_2  and  C4_12 
REMARK    2  A    between atoms: O2_2  and  C6_14 
REMARK    3  A    between atoms: O3_3  and  C1_9 
REMARK    4  A    between atoms: O4_4  and  C2_10 
REMARK    5  A    between atoms: O5_5  and  C5_13 
REMARK    6  A    between atoms: O6_6  and  C14_22 
REMARK    7  A    between atoms: C3_11  and  C5_13 
ROOT
HETATM    1  N1  UNK   900      12.236  -5.888  -5.403  1.00  0.00    -0.241 NA
HETATM    2  N2  UNK   900      11.406  -4.591  -7.687  1.00  0.00    -0.241 NA
HETATM    3  C6  UNK   900      14.501  -5.566  -6.042  1.00  0.00     0.103 A 
HETATM    4  C7  UNK   900      13.137  -5.412  -6.277  1.00  0.00     0.119 A 
HETATM    5  C8  UNK   900      15.451  -5.077  -6.936  1.00  0.00     0.039 A 
HETATM    6  C9  UNK   900      12.714  -4.753  -7.437  1.00  0.00     0.089 A 
HETATM    7  C10 UNK   900      15.032  -4.424  -8.086  1.00  0.00     0.005 A 
HETATM    8  C11 UNK   900      13.669  -4.266  -8.329  1.00  0.00     0.034 A 
HETATM    9  C12 UNK   900      10.928  -5.727  -5.654  1.00  0.00     0.089 A 
HETATM   10  C13 UNK   900      10.505  -5.068  -6.813  1.00  0.00     0.119 A 
HETATM   11  C14 UNK   900       9.141  -4.913  -7.049  1.00  0.00     0.096 A 
HETATM   12  C15 UNK   900       9.973  -6.214  -4.763  1.00  0.00     0.034 A 
HETATM   13  C16 UNK   900       8.191  -5.402  -6.154  1.00  0.00     0.039 A 
HETATM   14  C17 UNK   900       8.609  -6.056  -5.004  1.00  0.00     0.005 A 
ENDROOT
BRANCH   3  15
HETATM   15  O2  UNK   900      14.935  -6.207  -4.915  1.00  0.00    -0.315 OA
BRANCH  15  16
HETATM   16  C4  UNK   900      15.563  -5.404  -3.921  1.00  0.00     0.298 C 
HETATM   17  O1  UNK   900      14.799  -4.214  -3.678  1.00  0.00    -0.348 OA
HETATM   18  C3  UNK   900      14.056  -4.366  -2.454  1.00  0.00     0.179 C 
HETATM   19  C1  UNK   900      14.357  -5.763  -1.914  1.00  0.00     0.182 C 
HETATM   20  C2  UNK   900      15.658  -6.139  -2.592  1.00  0.00     0.205 C 
BRANCH  18  21
HETATM   21  C5  UNK   900      14.487  -3.253  -1.508  1.00  0.00     0.198 C 
BRANCH  21  22
HETATM   22  O5  UNK   900      15.202  -3.826  -0.424  1.00  0.00    -0.398 OA
HETATM   23  H9  UNK   900      14.639  -4.524  -0.048  1.00  0.00     0.209 HD
ENDBRANCH  21  22
ENDBRANCH  18  21
BRANCH  19  24
HETATM   24  O3  UNK   900      13.343  -6.664  -2.352  1.00  0.00    -0.390 OA
HETATM   25  H7  UNK   900      13.437  -6.762  -3.314  1.00  0.00     0.210 HD
ENDBRANCH  19  24
BRANCH  20  26
HETATM   26  O4  UNK   900      16.743  -5.623  -1.831  1.00  0.00    -0.388 OA
HETATM   27  H8  UNK   900      17.564  -5.931  -2.250  1.00  0.00     0.210 HD
ENDBRANCH  20  26
ENDBRANCH  15  16
ENDBRANCH   3  15
BRANCH  11  28
HETATM   28  O6  UNK   900       8.707  -4.273  -8.175  1.00  0.00    -0.358 OA
HETATM   29  H16 UNK   900       7.734  -4.262  -8.180  1.00  0.00     0.217 HD
ENDBRANCH  11  28
TORSDOF 7
ENDMDL
MODEL 9
REMARK VINA RESULT:      -5.2     24.965     26.808
REMARK  7 active torsions:
REMARK  status: ('A' for Active; 'I' for Inactive)
REMARK    1  A    between atoms: O2_2  and  C4_12 
REMARK    2  A    between atoms: O2_2  and  C6_14 
REMARK    3  A    between atoms: O3_3  and  C1_9 
REMARK    4  A    between atoms: O4_4  and  C2_10 
REMARK    5  A    between atoms: O5_5  and  C5_13 
REMARK    6  A    between atoms: O6_6  and  C14_22 
REMARK    7  A    between atoms: C3_11  and  C5_13 
ROOT
HETATM    1  N1  UNK   900      -7.201  12.960   4.284  1.00  0.00    -0.241 NA
HETATM    2  N2  UNK   900      -9.952  12.814   4.230  1.00  0.00    -0.241 NA
HETATM    3  C6  UNK   900      -7.214  12.375   6.586  1.00  0.00     0.103 A 
HETATM    4  C7  UNK   900      -7.885  12.639   5.394  1.00  0.00     0.119 A 
HETATM    5  C8  UNK   900      -7.905  12.039   7.748  1.00  0.00     0.039 A 
HETATM    6  C9  UNK   900      -9.282  12.565   5.366  1.00  0.00     0.089 A 
HETATM    7  C10 UNK   900      -9.290  11.965   7.720  1.00  0.00     0.005 A 
HETATM    8  C11 UNK   900      -9.968  12.228   6.532  1.00  0.00     0.034 A 
HETATM    9  C12 UNK   900      -7.871  13.210   3.148  1.00  0.00     0.089 A 
HETATM   10  C13 UNK   900      -9.268  13.136   3.120  1.00  0.00     0.119 A 
HETATM   11  C14 UNK   900      -9.939  13.398   1.928  1.00  0.00     0.096 A 
HETATM   12  C15 UNK   900      -7.185  13.547   1.983  1.00  0.00     0.034 A 
HETATM   13  C16 UNK   900      -9.248  13.735   0.766  1.00  0.00     0.039 A 
HETATM   14  C17 UNK   900      -7.862  13.809   0.794  1.00  0.00     0.005 A 
ENDROOT
BRANCH   3  15
HETATM   15  O2  UNK   900      -5.850  12.443   6.635  1.00  0.00    -0.315 OA
BRANCH  15  16
HETATM   16  C4  UNK   900      -5.271  12.860   7.868  1.00  0.00     0.298 C 
HETATM   17  O1  UNK   900      -4.574  11.771   8.491  1.00  0.00    -0.348 OA
HETATM   18  C3  UNK   900      -3.158  11.930   8.282  1.00  0.00     0.179 C 
HETATM   19  C1  UNK   900      -2.964  13.191   7.443  1.00  0.00     0.182 C 
HETATM   20  C2  UNK   900      -4.248  13.966   7.655  1.00  0.00     0.205 C 
BRANCH  18  21
HETATM   21  C5  UNK   900      -2.494  12.013   9.649  1.00  0.00     0.198 C 
BRANCH  21  22
HETATM   22  O5  UNK   900      -2.858  10.870  10.406  1.00  0.00    -0.398 OA
HETATM   23  H9  UNK   900      -3.820  10.761  10.314  1.00  0.00     0.209 HD
ENDBRANCH  21  22
ENDBRANCH  18  21
BRANCH  19  24
HETATM   24  O3  UNK   900      -2.877  12.832   6.066  1.00  0.00    -0.390 OA
HETATM   25  H7  UNK   900      -3.470  13.423   5.573  1.00  0.00     0.210 HD
ENDBRANCH  19  24
BRANCH  20  26
HETATM   26  O4  UNK   900      -4.129  14.748   8.837  1.00  0.00    -0.388 OA
HETATM   27  H8  UNK   900      -3.782  14.168   9.536  1.00  0.00     0.210 HD
ENDBRANCH  20  26
ENDBRANCH  15  16
ENDBRANCH   3  15
BRANCH  11  28
HETATM   28  O6  UNK   900     -11.303  13.331   1.879  1.00  0.00    -0.358 OA
HETATM   29  H16 UNK   900     -11.605  13.634   1.005  1.00  0.00     0.217 HD
ENDBRANCH  11  28
TORSDOF 7
ENDMDL
