REMARK  15 active torsions:
REMARK  status: ('A' for Active; 'I' for Inactive)
REMARK    1  A    between atoms: O1_1  and  C1_10 
REMARK    2  A    between atoms: O2_2  and  C2_11 
REMARK    3  A    between atoms: O3_3  and  C3_12 
REMARK    4  A    between atoms: O4_4  and  C4_13 
REMARK    5  A    between atoms: O5_5  and  C5_14 
REMARK    6  A    between atoms: O5_5  and  C8_17 
REMARK    7  A    between atoms: O6_6  and  C6_15 
REMARK    8  A    between atoms: O7_7  and  C10_19 
REMARK    9  A    between atoms: O9_9  and  C13_22 
REMARK   10  A    between atoms: C1_10  and  C2_11 
REMARK   11  A    between atoms: C1_10  and  C3_12 
REMARK   12  A    between atoms: C2_11  and  C4_13 
REMARK   13  A    between atoms: C3_12  and  C5_14 
REMARK   14  A    between atoms: C4_13  and  C6_15 
REMARK   15  A    between atoms: C7_16  and  C8_17 
ROOT
HETATM    1  C3  UNK   900       2.248   0.869   0.679  1.00  0.00     0.173 C 
ENDROOT
BRANCH   1   2
HETATM    2  O3  UNK   900       1.768   1.973   1.456  1.00  0.00    -0.391 OA
HETATM    3  H11 UNK   900       0.839   1.790   1.679  1.00  0.00     0.210 HD
ENDBRANCH   1   2
BRANCH   1   4
HETATM    4  C1  UNK   900       3.726   1.134   0.328  1.00  0.00     0.180 C 
BRANCH   4   5
HETATM    5  O1  UNK   900       3.845   2.396  -0.328  1.00  0.00    -0.390 OA
HETATM    6  H9  UNK   900       3.429   3.063   0.244  1.00  0.00     0.210 HD
ENDBRANCH   4   5
BRANCH   4   7
HETATM    7  C2  UNK   900       4.351   0.052  -0.569  1.00  0.00     0.180 C 
BRANCH   7   8
HETATM    8  O2  UNK   900       5.688   0.437  -0.891  1.00  0.00    -0.390 OA
HETATM    9  H10 UNK   900       6.069  -0.266  -1.445  1.00  0.00     0.210 HD
ENDBRANCH   7   8
BRANCH   7  10
HETATM   10  C4  UNK   900       4.355  -1.352   0.067  1.00  0.00     0.173 C 
BRANCH  10  11
HETATM   11  O4  UNK   900       5.015  -2.251  -0.834  1.00  0.00    -0.391 OA
HETATM   12  H12 UNK   900       4.524  -2.235  -1.673  1.00  0.00     0.210 HD
ENDBRANCH  10  11
BRANCH  10  13
HETATM   13  C6  UNK   900       5.095  -1.434   1.400  1.00  0.00     0.198 C 
BRANCH  13  14
HETATM   14  O6  UNK   900       4.999  -2.766   1.897  1.00  0.00    -0.398 OA
HETATM   15  H13 UNK   900       5.479  -2.791   2.741  1.00  0.00     0.209 HD
ENDBRANCH  13  14
ENDBRANCH  10  13
ENDBRANCH   7  10
ENDBRANCH   4   7
ENDBRANCH   1   4
BRANCH   1  16
HETATM   16  C5  UNK   900       1.329   0.744  -0.535  1.00  0.00     0.213 C 
BRANCH  16  17
HETATM   17  O5  UNK   900      -0.000   0.459  -0.104  1.00  0.00    -0.315 OA
BRANCH  17  18
HETATM   18  C8  UNK   900      -0.928   0.323  -1.089  1.00  0.00     0.296 C 
HETATM   19  O8  UNK   900      -0.723   0.421  -2.289  1.00  0.00    -0.259 OA
BRANCH  18  20
HETATM   20  C7  UNK   900      -2.264   0.030  -0.512  1.00  0.00     0.078 A 
HETATM   21  C9  UNK   900      -2.929  -1.151  -0.842  1.00  0.00    -0.040 A 
HETATM   22  C11 UNK   900      -4.185  -1.420  -0.299  1.00  0.00     0.044 A 
HETATM   23  C14 UNK   900      -2.320  -2.147  -1.776  1.00  0.00     0.049 C 
HETATM   24  C13 UNK   900      -4.776  -0.507   0.575  1.00  0.00     0.071 A 
HETATM   25  C12 UNK   900      -4.112   0.674   0.905  1.00  0.00     0.074 A 
HETATM   26  C10 UNK   900      -2.855   0.942   0.361  1.00  0.00     0.087 A 
BRANCH  24  27
HETATM   27  O9  UNK   900      -6.002  -0.769   1.106  1.00  0.00    -0.356 OA
HETATM   28  C16 UNK   900      -6.625  -1.995   0.727  1.00  0.00     0.210 C 
ENDBRANCH  24  27
BRANCH  26  29
HETATM   29  O7  UNK   900      -2.224   2.103   0.697  1.00  0.00    -0.355 OA
HETATM   30  C15 UNK   900      -2.476   3.238  -0.128  1.00  0.00     0.210 C 
ENDBRANCH  26  29
ENDBRANCH  18  20
ENDBRANCH  17  18
ENDBRANCH  16  17
ENDBRANCH   1  16
TORSDOF 15
