REMARK  5 active torsions:
REMARK  status: ('A' for Active; 'I' for Inactive)
REMARK    1  A    between atoms: O3_3  and  C1_6 
REMARK    2  A    between atoms: O4_4  and  C4_9 
REMARK    3  A    between atoms: O5_5  and  C7_12 
REMARK    4  A    between atoms: C1_6  and  C2_7 
REMARK    5  A    between atoms: C1_6  and  C4_9 
ROOT
HETATM    1  O1  UNK   900      -2.977  -0.201   0.048  1.00  0.00    -0.317 OA
HETATM    2  O2  UNK   900      -2.018   2.006   0.001  1.00  0.00    -0.320 OA
HETATM    3  C2  UNK   900       0.503   0.696  -0.102  1.00  0.00    -0.006 C 
HETATM    4  C3  UNK   900      -0.617  -0.012   0.097  1.00  0.00     0.042 C 
HETATM    5  C5  UNK   900      -1.905   0.665   0.501  1.00  0.00     0.310 C 
HETATM    6  C7  UNK   900      -1.002  -1.373  -0.099  1.00  0.00     0.108 C 
HETATM    7  C8  UNK   900       0.382   2.134   0.085  1.00  0.00     0.043 C 
HETATM    8  C9  UNK   900      -2.333  -1.435  -0.127  1.00  0.00     0.080 C 
HETATM    9  C10 UNK   900      -0.830   2.724   0.092  1.00  0.00     0.046 C 
HETATM   10  C12 UNK   900      -3.216  -2.610  -0.343  1.00  0.00     0.079 C 
HETATM   11  C13 UNK   900      -1.017   4.204   0.180  1.00  0.00     0.076 C 
ENDROOT
BRANCH   3  12
HETATM   12  C1  UNK   900       1.839   0.185  -0.540  1.00  0.00     0.107 C 
HETATM   13  C6  UNK   900       1.688  -0.538  -1.886  1.00  0.00     0.054 C 
BRANCH  12  14
HETATM   14  O3  UNK   900       2.706   1.301  -0.790  1.00  0.00    -0.383 OA
HETATM   15  H10 UNK   900       3.517   0.983  -1.219  1.00  0.00     0.211 HD
ENDBRANCH  12  14
BRANCH  12  16
HETATM   16  C4  UNK   900       2.514  -0.729   0.515  1.00  0.00     0.152 C 
HETATM   17  C11 UNK   900       3.881  -1.271   0.101  1.00  0.00     0.042 C 
BRANCH  16  18
HETATM   18  O4  UNK   900       2.687  -0.037   1.751  1.00  0.00    -0.393 OA
HETATM   19  H11 UNK   900       3.054  -0.666   2.395  1.00  0.00     0.210 HD
ENDBRANCH  16  18
ENDBRANCH  12  16
ENDBRANCH   3  12
BRANCH   6  20
HETATM   20  O5  UNK   900      -0.081  -2.359  -0.249  1.00  0.00    -0.353 OA
HETATM   21  C14 UNK   900      -0.204  -3.349   0.764  1.00  0.00     0.210 C 
ENDBRANCH   6  20
TORSDOF 5
