REMARK  2 active torsions:
REMARK  status: ('A' for Active; 'I' for Inactive)
REMARK    1  A    between atoms: O1_1  and  C1_5 
REMARK    2  A    between atoms: O2_2  and  C8_12 
ROOT
HETATM    1  O3  UNK   900       2.663   2.330  -0.134  1.00  0.00    -0.292 OA
HETATM    2  N1  UNK   900      -3.621   0.903  -0.059  1.00  0.00    -0.265 NA
HETATM    3  C1  UNK   900       2.329  -1.813   0.194  1.00  0.00     0.152 C 
HETATM    4  C2  UNK   900       1.113  -0.927   0.131  1.00  0.00    -0.012 A 
HETATM    5  C3  UNK   900       3.522  -1.070   0.789  1.00  0.00     0.044 C 
HETATM    6  C4  UNK   900       1.224   0.468   0.036  1.00  0.00     0.053 A 
HETATM    7  C5  UNK   900       3.788   0.229   0.042  1.00  0.00     0.087 C 
HETATM    8  C6  UNK   900       2.562   1.113  -0.008  1.00  0.00     0.163 C 
HETATM    9  C7  UNK   900      -0.165  -1.509   0.141  1.00  0.00     0.023 A 
HETATM   10  C8  UNK   900       0.076   1.267  -0.030  1.00  0.00     0.092 A 
HETATM   11  C9  UNK   900      -1.325  -0.721   0.074  1.00  0.00    -0.019 A 
HETATM   12  C10 UNK   900      -1.199   0.679  -0.010  1.00  0.00     0.026 A 
HETATM   13  C11 UNK   900      -2.606  -1.286   0.089  1.00  0.00     0.039 A 
HETATM   14  C12 UNK   900      -2.376   1.429  -0.073  1.00  0.00     0.132 A 
HETATM   15  C13 UNK   900      -3.703  -0.442   0.021  1.00  0.00     0.031 A 
HETATM   16  C14 UNK   900      -5.076  -1.026   0.037  1.00  0.00     0.070 C 
ENDROOT
BRANCH   3  17
HETATM   17  O1  UNK   900       2.629  -2.254  -1.127  1.00  0.00    -0.391 OA
HETATM   18  H8  UNK   900       3.414  -2.825  -1.074  1.00  0.00     0.210 HD
ENDBRANCH   3  17
BRANCH  10  19
HETATM   19  O2  UNK   900       0.166   2.629  -0.114  1.00  0.00    -0.359 OA
HETATM   20  H10 UNK   900       1.050   2.931   0.142  1.00  0.00     0.217 HD
ENDBRANCH  10  19
TORSDOF 2
