REMARK  7 active torsions:
REMARK  status: ('A' for Active; 'I' for Inactive)
REMARK    1  A    between atoms: O2_2  and  C10_15 
REMARK    2  A    between atoms: O3_3  and  C11_16 
REMARK    3  A    between atoms: O4_4  and  C12_17 
REMARK    4  A    between atoms: C1_6  and  C3_8 
REMARK    5  A    between atoms: C3_8  and  C5_10 
REMARK    6  A    between atoms: C5_10  and  C7_12 
REMARK    7  A    between atoms: C7_12  and  C10_15 
ROOT
HETATM    1  O1  UNK   900       0.868  -0.869  -0.565  1.00  0.00    -0.312 OA
HETATM    2  O5  UNK   900      -0.453  -2.702  -0.714  1.00  0.00    -0.259 OA
HETATM    3  C1  UNK   900       1.014   0.479  -0.063  1.00  0.00     0.136 C 
HETATM    4  C2  UNK   900      -0.083   1.365  -0.633  1.00  0.00     0.073 C 
HETATM    5  C4  UNK   900      -1.401   0.747  -0.275  1.00  0.00    -0.028 A 
HETATM    6  C6  UNK   900      -1.509  -0.648  -0.207  1.00  0.00     0.080 A 
HETATM    7  C8  UNK   900      -2.532   1.538  -0.047  1.00  0.00    -0.021 A 
HETATM    8  C9  UNK   900      -0.335  -1.502  -0.507  1.00  0.00     0.297 C 
HETATM    9  C11 UNK   900      -2.735  -1.245   0.104  1.00  0.00     0.091 A 
HETATM   10  C12 UNK   900      -3.753   0.941   0.267  1.00  0.00     0.080 A 
HETATM   11  C13 UNK   900      -3.853  -0.447   0.345  1.00  0.00     0.006 A 
HETATM   12  C14 UNK   900      -2.461   3.030  -0.144  1.00  0.00     0.052 C 
HETATM   13  C16 UNK   900      -5.166  -1.080   0.685  1.00  0.00     0.054 C 
ENDROOT
BRANCH   3  14
HETATM   14  C3  UNK   900       2.395   0.974  -0.469  1.00  0.00     0.033 C 
BRANCH  14  15
HETATM   15  C5  UNK   900       3.497   0.063   0.072  1.00  0.00     0.005 C 
BRANCH  15  16
HETATM   16  C7  UNK   900       4.882   0.584  -0.314  1.00  0.00     0.031 C 
BRANCH  16  17
HETATM   17  C10 UNK   900       6.030  -0.273   0.231  1.00  0.00     0.114 C 
HETATM   18  C15 UNK   900       7.413   0.268  -0.108  1.00  0.00     0.039 C 
BRANCH  17  19
HETATM   19  O2  UNK   900       5.908  -0.336   1.653  1.00  0.00    -0.396 OA
HETATM   20  H20 UNK   900       6.613  -0.919   1.982  1.00  0.00     0.210 HD
ENDBRANCH  17  19
ENDBRANCH  16  17
ENDBRANCH  15  16
ENDBRANCH  14  15
ENDBRANCH   3  14
BRANCH   9  21
HETATM   21  O3  UNK   900      -2.872  -2.600   0.194  1.00  0.00    -0.359 OA
HETATM   22  H21 UNK   900      -2.004  -3.032   0.175  1.00  0.00     0.217 HD
ENDBRANCH   9  21
BRANCH  10  23
HETATM   23  O4  UNK   900      -4.854   1.716   0.495  1.00  0.00    -0.359 OA
HETATM   24  H22 UNK   900      -5.639   1.180   0.683  1.00  0.00     0.217 HD
ENDBRANCH  10  23
TORSDOF 7
