REMARK  8 active torsions:
REMARK  status: ('A' for Active; 'I' for Inactive)
REMARK    1  A    between atoms: O1_1  and  C5_9 
REMARK    2  A    between atoms: O3_3  and  C10_14 
REMARK    3  A    between atoms: C1_5  and  C2_6 
REMARK    4  A    between atoms: C1_5  and  C3_7 
REMARK    5  A    between atoms: C2_6  and  C4_8 
REMARK    6  A    between atoms: C3_7  and  C5_9 
REMARK    7  A    between atoms: C4_8  and  C6_10 
REMARK    8  A    between atoms: C5_9  and  C7_11 
ROOT
HETATM    1  O2  UNK   900       1.304   0.947   0.990  1.00  0.00    -0.277 OA
HETATM    2  O4  UNK   900       2.369   0.099   2.811  1.00  0.00    -0.260 OA
HETATM    3  C7  UNK   900       1.098   0.908  -0.411  1.00  0.00     0.088 A 
HETATM    4  C9  UNK   900       1.744   0.030  -1.189  1.00  0.00     0.072 A 
HETATM    5  C10 UNK   900       2.665  -0.891  -0.583  1.00  0.00     0.076 A 
HETATM    6  C11 UNK   900       2.175   0.084   1.600  1.00  0.00     0.290 A 
HETATM    7  C12 UNK   900       2.883  -0.882   0.735  1.00  0.00     0.119 A 
ENDROOT
BRANCH   3   8
HETATM    8  C5  UNK   900       0.119   1.916  -0.917  1.00  0.00     0.175 C 
BRANCH   8   9
HETATM    9  O1  UNK   900       0.663   3.211  -0.656  1.00  0.00    -0.389 OA
HETATM   10  H16 UNK   900       0.052   3.867  -1.032  1.00  0.00     0.210 HD
ENDBRANCH   8   9
BRANCH   8  11
HETATM   11  C3  UNK   900      -1.261   1.826  -0.254  1.00  0.00     0.039 C 
BRANCH  11  12
HETATM   12  C1  UNK   900      -1.986   0.505  -0.526  1.00  0.00     0.003 C 
BRANCH  12  13
HETATM   13  C2  UNK   900      -3.389   0.507   0.089  1.00  0.00     0.000 C 
BRANCH  13  14
HETATM   14  C4  UNK   900      -4.104  -0.823  -0.159  1.00  0.00    -0.000 C 
BRANCH  14  15
HETATM   15  C6  UNK   900      -5.524  -0.863   0.410  1.00  0.00    -0.005 C 
HETATM   16  C8  UNK   900      -6.248  -2.174   0.143  1.00  0.00     0.005 C 
ENDBRANCH  14  15
ENDBRANCH  13  14
ENDBRANCH  12  13
ENDBRANCH  11  12
ENDBRANCH   8  11
ENDBRANCH   3   8
BRANCH   5  17
HETATM   17  O3  UNK   900       3.312  -1.781  -1.411  1.00  0.00    -0.356 OA
HETATM   18  C13 UNK   900       4.181  -2.618  -0.671  1.00  0.00     0.210 C 
ENDBRANCH   5  17
TORSDOF 8
