REMARK  3 active torsions:
REMARK  status: ('A' for Active; 'I' for Inactive)
REMARK    1  A    between atoms: O1_1  and  C4_8 
REMARK    2  A    between atoms: C1_5  and  C3_7 
REMARK    3  A    between atoms: C3_7  and  C7_11 
ROOT
HETATM    1  C3  UNK   900       0.490  -0.379   1.288  1.00  0.00     0.055 C 
ENDROOT
BRANCH   1   2
HETATM    2  C1  UNK   900       1.723  -0.314   0.388  1.00  0.00     0.084 C 
HETATM    3  C2  UNK   900       3.000  -0.423   1.224  1.00  0.00     0.047 C 
HETATM    4  C4  UNK   900       4.235  -0.267   0.346  1.00  0.00     0.136 C 
HETATM    5  C5  UNK   900       4.207   1.082  -0.350  1.00  0.00     0.154 C 
HETATM    6  N1  UNK   900       2.909   1.427  -0.906  1.00  0.00    -0.358 N 
HETATM    7  C6  UNK   900       1.691   0.937  -0.487  1.00  0.00     0.222 C 
HETATM    8  H9  UNK   900       2.885   2.221  -1.538  1.00  0.00     0.162 HD
HETATM    9  O2  UNK   900       0.629   1.427  -0.876  1.00  0.00    -0.273 OA
BRANCH   4  10
HETATM   10  O1  UNK   900       4.288  -1.296  -0.637  1.00  0.00    -0.394 OA
HETATM   11  H12 UNK   900       5.104  -1.171  -1.151  1.00  0.00     0.210 HD
ENDBRANCH   4  10
ENDBRANCH   1   2
BRANCH   1  12
HETATM   12  C7  UNK   900      -0.736  -0.787   0.518  1.00  0.00    -0.029 A 
HETATM   13  C8  UNK   900      -1.943  -0.045   0.392  1.00  0.00    -0.002 A 
HETATM   14  C10 UNK   900      -2.805  -0.798  -0.408  1.00  0.00     0.042 A 
HETATM   15  C11 UNK   900      -2.386   1.199   0.882  1.00  0.00     0.014 A 
HETATM   16  N2  UNK   900      -2.137  -1.953  -0.749  1.00  0.00    -0.365 N 
HETATM   17  C12 UNK   900      -4.094  -0.368  -0.743  1.00  0.00     0.030 A 
HETATM   18  C9  UNK   900      -0.885  -1.955  -0.194  1.00  0.00     0.096 A 
HETATM   19  H11 UNK   900      -2.516  -2.691  -1.325  1.00  0.00     0.165 HD
HETATM   20  C14 UNK   900      -4.512   0.870  -0.245  1.00  0.00     0.002 A 
HETATM   21  C13 UNK   900      -3.673   1.643   0.555  1.00  0.00     0.001 A 
ENDBRANCH   1  12
TORSDOF 3
