REMARK  7 active torsions:
REMARK  status: ('A' for Active; 'I' for Inactive)
REMARK    1  A    between atoms: O2_2  and  C6_12 
REMARK    2  A    between atoms: O3_3  and  C7_13 
REMARK    3  A    between atoms: O4_4  and  C10_16 
REMARK    4  A    between atoms: O5_5  and  C11_17 
REMARK    5  A    between atoms: O6_6  and  C12_18 
REMARK    6  A    between atoms: C1_7  and  C5_11 
REMARK    7  A    between atoms: C8_14  and  C12_18 
ROOT
HETATM    1  O1  UNK   900       0.506   1.489   1.898  1.00  0.00    -0.372 OA
HETATM    2  C1  UNK   900       0.545   0.203   1.220  1.00  0.00     0.197 C 
HETATM    3  C2  UNK   900      -0.799   0.067   0.589  1.00  0.00     0.020 A 
HETATM    4  C3  UNK   900      -1.598   1.135   0.972  1.00  0.00     0.011 A 
HETATM    5  C4  UNK   900      -0.835   2.034   1.868  1.00  0.00     0.211 C 
HETATM    6  C6  UNK   900      -1.290  -0.934  -0.234  1.00  0.00     0.086 A 
HETATM    7  C7  UNK   900      -2.907   1.245   0.538  1.00  0.00     0.075 A 
HETATM    8  C8  UNK   900      -2.608  -0.835  -0.683  1.00  0.00     0.002 A 
HETATM    9  C9  UNK   900      -3.412   0.250  -0.300  1.00  0.00     0.049 A 
ENDROOT
BRANCH   2  10
HETATM   10  C5  UNK   900       1.674   0.247   0.251  1.00  0.00     0.042 A 
HETATM   11  C10 UNK   900       1.659   1.171  -0.795  1.00  0.00     0.080 A 
HETATM   12  C13 UNK   900       2.717   1.213  -1.703  1.00  0.00     0.037 A 
HETATM   13  C15 UNK   900       3.789   0.331  -1.566  1.00  0.00     0.005 A 
HETATM   14  C14 UNK   900       3.804  -0.592  -0.520  1.00  0.00     0.037 A 
HETATM   15  C11 UNK   900       2.746  -0.634   0.388  1.00  0.00     0.080 A 
BRANCH  11  16
HETATM   16  O4  UNK   900       0.619   2.038  -0.946  1.00  0.00    -0.355 OA
HETATM   17  C17 UNK   900       0.688   2.947  -2.042  1.00  0.00     0.210 C 
ENDBRANCH  11  16
BRANCH  15  18
HETATM   18  O5  UNK   900       2.777  -1.543   1.403  1.00  0.00    -0.355 OA
HETATM   19  C18 UNK   900       3.913  -2.404   1.466  1.00  0.00     0.210 C 
ENDBRANCH  15  18
ENDBRANCH   2  10
BRANCH   6  20
HETATM   20  O2  UNK   900      -0.509  -1.989  -0.586  1.00  0.00    -0.355 OA
HETATM   21  C16 UNK   900      -0.540  -3.135   0.265  1.00  0.00     0.210 C 
ENDBRANCH   6  20
BRANCH   7  22
HETATM   22  O3  UNK   900      -3.688   2.290   0.915  1.00  0.00    -0.360 OA
HETATM   23  H10 UNK   900      -4.567   2.188   0.511  1.00  0.00     0.217 HD
ENDBRANCH   7  22
BRANCH   8  24
HETATM   24  C12 UNK   900      -3.187  -1.884  -1.575  1.00  0.00     0.205 C 
BRANCH  24  25
HETATM   25  O6  UNK   900      -4.068  -2.707  -0.823  1.00  0.00    -0.396 OA
HETATM   26  H14 UNK   900      -4.440  -3.363  -1.437  1.00  0.00     0.209 HD
ENDBRANCH  24  25
ENDBRANCH   8  24
TORSDOF 7
