REMARK  7 active torsions:
REMARK  status: ('A' for Active; 'I' for Inactive)
REMARK    1  A    between atoms: O4_4  and  C20_28 
REMARK    2  A    between atoms: O4_4  and  C23_31 
REMARK    3  A    between atoms: O5_5  and  C17_25 
REMARK    4  A    between atoms: O6_6  and  C18_26 
REMARK    5  A    between atoms: O7_7  and  C26_34 
REMARK    6  A    between atoms: C14_22  and  C16_24 
REMARK    7  A    between atoms: C19_27  and  C26_34 
ROOT
HETATM    1  O1  UNK   900      -1.435   0.343   0.553  1.00  0.00    -0.344 OA
HETATM    2  O2  UNK   900      -5.070  -2.673   0.190  1.00  0.00    -0.268 OA
HETATM    3  N1  UNK   900      -2.940  -3.397  -0.210  1.00  0.00    -0.332 N 
HETATM    4  C1  UNK   900      -3.534   1.501   0.379  1.00  0.00     0.024 C 
HETATM    5  C2  UNK   900      -4.336   0.178   0.151  1.00  0.00     0.037 C 
HETATM    6  C3  UNK   900      -5.299   0.477  -1.045  1.00  0.00    -0.009 C 
HETATM    7  C4  UNK   900      -4.480   2.601   0.872  1.00  0.00     0.012 C 
HETATM    8  C5  UNK   900      -5.556   2.888  -0.184  1.00  0.00    -0.018 C 
HETATM    9  C6  UNK   900      -6.272   1.609  -0.635  1.00  0.00     0.009 C 
HETATM   10  C7  UNK   900      -2.317   1.230   1.267  1.00  0.00     0.129 C 
HETATM   11  C8  UNK   900      -3.371  -0.994   0.043  1.00  0.00     0.049 C 
HETATM   12  C9  UNK   900      -6.128  -0.693  -1.569  1.00  0.00     0.011 C 
HETATM   13  C10 UNK   900      -2.035  -0.842   0.174  1.00  0.00     0.093 C 
HETATM   14  C11 UNK   900      -6.561   3.917   0.335  1.00  0.00     0.010 C 
HETATM   15  C12 UNK   900      -1.497   2.475   1.590  1.00  0.00     0.040 C 
HETATM   16  C13 UNK   900      -3.885  -2.410   0.002  1.00  0.00     0.254 C 
HETATM   17  C14 UNK   900      -1.095  -1.940  -0.023  1.00  0.00     0.024 C 
HETATM   18  C15 UNK   900      -1.591  -3.170  -0.228  1.00  0.00     0.106 C 
HETATM   19  H19 UNK   900      -3.253  -4.359  -0.299  1.00  0.00     0.168 HD
ENDROOT
BRANCH  17  20
HETATM   20  C16 UNK   900       0.372  -1.781  -0.033  1.00  0.00    -0.022 A 
HETATM   21  C21 UNK   900       1.035  -1.496  -1.226  1.00  0.00     0.015 A 
HETATM   22  C24 UNK   900       2.422  -1.347  -1.236  1.00  0.00     0.038 A 
HETATM   23  C23 UNK   900       3.146  -1.484  -0.051  1.00  0.00     0.072 A 
HETATM   24  C25 UNK   900       2.483  -1.769   1.143  1.00  0.00     0.038 A 
HETATM   25  C22 UNK   900       1.096  -1.918   1.152  1.00  0.00     0.015 A 
BRANCH  23  26
HETATM   26  O4  UNK   900       4.499  -1.340  -0.060  1.00  0.00    -0.318 OA
BRANCH  26  27
HETATM   27  C20 UNK   900       5.046  -0.308   0.752  1.00  0.00     0.298 C 
HETATM   28  O3  UNK   900       4.531   0.977   0.349  1.00  0.00    -0.348 OA
HETATM   29  C19 UNK   900       5.560   1.692  -0.356  1.00  0.00     0.179 C 
HETATM   30  C17 UNK   900       6.638   0.668  -0.670  1.00  0.00     0.182 C 
HETATM   31  C18 UNK   900       6.551  -0.248   0.535  1.00  0.00     0.205 C 
BRANCH  29  32
HETATM   32  C26 UNK   900       4.973   2.346  -1.595  1.00  0.00     0.198 C 
BRANCH  32  33
HETATM   33  O7  UNK   900       3.975   3.271  -1.194  1.00  0.00    -0.398 OA
HETATM   34  H33 UNK   900       3.615   3.672  -2.004  1.00  0.00     0.209 HD
ENDBRANCH  32  33
ENDBRANCH  29  32
BRANCH  30  35
HETATM   35  O5  UNK   900       7.907   1.266  -0.829  1.00  0.00    -0.390 OA
HETATM   36  H31 UNK   900       8.559   0.549  -0.909  1.00  0.00     0.210 HD
ENDBRANCH  30  35
BRANCH  31  37
HETATM   37  O6  UNK   900       7.167   0.370   1.660  1.00  0.00    -0.388 OA
HETATM   38  H32 UNK   900       7.043  -0.222   2.421  1.00  0.00     0.210 HD
ENDBRANCH  31  37
ENDBRANCH  26  27
ENDBRANCH  23  26
ENDBRANCH  17  20
TORSDOF 7
