REMARK  3 active torsions:
REMARK  status: ('A' for Active; 'I' for Inactive)
REMARK    1  A    between atoms: N2_5  and  C6_13 
REMARK    2  A    between atoms: N3_6  and  C7_14 
REMARK       I    between atoms: N4_7  and  C13_20 
REMARK    3  A    between atoms: C11_18  and  C13_20 
ROOT
HETATM    1 CL1  UNK   900       3.495  -2.839   0.000  1.00  0.00    -0.079 Cl
HETATM    2  O1  UNK   900      -0.218   3.641   0.000  1.00  0.00    -0.267 OA
HETATM    3  N1  UNK   900       1.540   2.044   0.001  1.00  0.00    -0.315 N 
HETATM    4  C1  UNK   900       0.242   0.212  -0.001  1.00  0.00     0.021 A 
HETATM    5  C2  UNK   900       1.542   0.639   0.000  1.00  0.00     0.077 A 
HETATM    6  C3  UNK   900      -0.611   1.285  -0.001  1.00  0.00     0.046 A 
HETATM    7  C4  UNK   900      -0.162  -1.119  -0.002  1.00  0.00     0.006 A 
HETATM    8  C5  UNK   900       0.222   2.507   0.000  1.00  0.00     0.259 A 
HETATM    9  C6  UNK   900       2.572  -0.279   0.001  1.00  0.00     0.078 A 
HETATM   10  C7  UNK   900       0.881  -2.068  -0.002  1.00  0.00     0.061 A 
HETATM   11  C8  UNK   900      -1.976   1.096  -0.002  1.00  0.00     0.035 A 
HETATM   12  C9  UNK   900      -1.557  -1.330  -0.003  1.00  0.00     0.031 A 
HETATM   13  C10 UNK   900       2.230  -1.644   0.000  1.00  0.00     0.089 A 
HETATM   14  C11 UNK   900      -2.446  -0.229  -0.003  1.00  0.00     0.033 A 
HETATM   15  C12 UNK   900       2.713   2.881   0.002  1.00  0.00     0.160 C 
ENDROOT
BRANCH  14  16
HETATM   16  C13 UNK   900      -3.881  -0.475  -0.003  1.00  0.00     0.249 C 
HETATM   17  O2  UNK   900      -4.339  -1.630   0.013  1.00  0.00    -0.268 OA
HETATM   18  N4  UNK   900      -4.726   0.630  -0.003  1.00  0.00    -0.366 N 
HETATM   19  H10 UNK   900      -4.440   1.600  -0.011  1.00  0.00     0.159 HD
HETATM   20  H11 UNK   900      -5.731   0.485   0.004  1.00  0.00     0.159 HD
ENDBRANCH  14  16
BRANCH  10  21
HETATM   21  N3  UNK   900       0.561  -3.448  -0.002  1.00  0.00    -0.397 N 
HETATM   22  H8  UNK   900      -0.397  -3.765  -0.004  1.00  0.00     0.156 HD
HETATM   23  H9  UNK   900       1.311  -4.128  -0.003  1.00  0.00     0.156 HD
ENDBRANCH  10  21
BRANCH   9  24
HETATM   24  N2  UNK   900       3.919   0.127   0.002  1.00  0.00    -0.396 N 
HETATM   25  H6  UNK   900       4.209   1.088   0.006  1.00  0.00     0.156 HD
HETATM   26  H7  UNK   900       4.638  -0.587   0.003  1.00  0.00     0.156 HD
ENDBRANCH   9  24
TORSDOF 3
