REMARK  7 active torsions:
REMARK  status: ('A' for Active; 'I' for Inactive)
REMARK    1  A    between atoms: O1_1  and  C1_6 
REMARK    2  A    between atoms: O2_2  and  C3_8 
REMARK    3  A    between atoms: O3_3  and  C4_9 
REMARK    4  A    between atoms: O4_4  and  C11_16 
REMARK    5  A    between atoms: O5_5  and  C14_19 
REMARK    6  A    between atoms: C8_13  and  C11_16 
REMARK    7  A    between atoms: C11_16  and  C14_19 
ROOT
HETATM    1  C1  UNK   900      -1.053   0.635   0.416  1.00  0.00     0.095 C 
HETATM    2  C2  UNK   900      -1.912  -0.593   0.020  1.00  0.00     0.057 C 
HETATM    3  C3  UNK   900      -1.972   1.803  -0.051  1.00  0.00     0.085 C 
HETATM    4  C4  UNK   900      -1.278  -2.006   0.044  1.00  0.00     0.061 C 
HETATM    5  C5  UNK   900       0.359   0.688  -0.212  1.00  0.00     0.049 C 
HETATM    6  C6  UNK   900      -2.574  -0.186  -1.315  1.00  0.00     0.014 C 
HETATM    7  C7  UNK   900      -2.455   1.339  -1.425  1.00  0.00     0.041 C 
HETATM    8  C8  UNK   900       1.334  -0.378   0.320  1.00  0.00     0.025 C 
HETATM    9  C9  UNK   900      -0.091  -2.190  -0.919  1.00  0.00     0.038 C 
HETATM   10  C10 UNK   900       1.278  -1.702  -0.448  1.00  0.00     0.011 C 
HETATM   11  C12 UNK   900      -1.357   3.197  -0.087  1.00  0.00     0.049 C 
HETATM   12  C13 UNK   900      -2.358  -3.053  -0.295  1.00  0.00     0.046 C 
ENDROOT
BRANCH   8  13
HETATM   13  C11 UNK   900       2.775   0.154   0.283  1.00  0.00     0.079 C 
HETATM   14  C15 UNK   900       3.735  -0.893   0.844  1.00  0.00     0.048 C 
BRANCH  13  15
HETATM   15  O4  UNK   900       2.842   1.298   1.134  1.00  0.00    -0.388 OA
HETATM   16  H27 UNK   900       3.737   1.672   1.062  1.00  0.00     0.210 HD
ENDBRANCH  13  15
BRANCH  13  17
HETATM   17  C14 UNK   900       3.145   0.573  -1.143  1.00  0.00     0.201 C 
BRANCH  17  18
HETATM   18  O5  UNK   900       4.489   1.040  -1.185  1.00  0.00    -0.398 OA
HETATM   19  H28 UNK   900       4.672   1.308  -2.101  1.00  0.00     0.209 HD
ENDBRANCH  17  18
ENDBRANCH  13  17
ENDBRANCH   8  13
BRANCH   1  20
HETATM   20  O1  UNK   900      -0.922   0.684   1.838  1.00  0.00    -0.386 OA
HETATM   21  H19 UNK   900      -0.449   1.502   2.066  1.00  0.00     0.210 HD
ENDBRANCH   1  20
BRANCH   3  22
HETATM   22  O2  UNK   900      -3.128   1.876   0.797  1.00  0.00    -0.387 OA
HETATM   23  H20 UNK   900      -3.732   2.544   0.430  1.00  0.00     0.210 HD
ENDBRANCH   3  22
BRANCH   4  24
HETATM   24  O3  UNK   900      -0.857  -2.283   1.384  1.00  0.00    -0.390 OA
HETATM   25  H21 UNK   900      -0.464  -3.172   1.399  1.00  0.00     0.210 HD
ENDBRANCH   4  24
TORSDOF 7
