REMARK  7 active torsions:
REMARK  status: ('A' for Active; 'I' for Inactive)
REMARK    1  A    between atoms: O1_1  and  C5_8 
REMARK    2  A    between atoms: O2_2  and  C13_16 
REMARK    3  A    between atoms: C1_4  and  C2_5 
REMARK    4  A    between atoms: C2_5  and  C6_9 
REMARK    5  A    between atoms: C6_9  and  C10_13 
REMARK    6  A    between atoms: C10_13  and  C12_15 
REMARK    7  A    between atoms: C12_15  and  C13_16 
ROOT
HETATM    1  C2  UNK   900       0.033  -1.144  -0.354  1.00  0.00    -0.011 C 
HETATM    2  C9  UNK   900       0.245  -2.649  -0.187  1.00  0.00     0.010 C 
ENDROOT
BRANCH   1   3
HETATM    3  C1  UNK   900      -1.408  -0.872  -0.786  1.00  0.00     0.011 C 
HETATM    4  C3  UNK   900      -2.388  -1.460   0.244  1.00  0.00     0.012 C 
HETATM    5  C4  UNK   900      -3.801  -0.923   0.032  1.00  0.00     0.042 C 
HETATM    6  C5  UNK   900      -3.858   0.613   0.134  1.00  0.00     0.072 C 
HETATM    7  C8  UNK   900      -2.716   1.265  -0.603  1.00  0.00     0.007 C 
HETATM    8  C11 UNK   900      -3.873   1.079   1.594  1.00  0.00     0.050 C 
HETATM    9  C7  UNK   900      -1.630   0.600  -1.023  1.00  0.00    -0.023 C 
BRANCH   6  10
HETATM   10  O1  UNK   900      -5.090   1.023  -0.469  1.00  0.00    -0.386 OA
HETATM   11  H19 UNK   900      -5.818   0.603   0.021  1.00  0.00     0.211 HD
ENDBRANCH   6  10
ENDBRANCH   1   3
BRANCH   1  12
HETATM   12  C6  UNK   900       0.344  -0.358   0.937  1.00  0.00     0.012 C 
BRANCH  12  13
HETATM   13  C10 UNK   900       1.833  -0.180   1.239  1.00  0.00     0.082 C 
BRANCH  13  14
HETATM   14  C12 UNK   900       2.577   0.615   0.174  1.00  0.00     0.160 C 
HETATM   15  O3  UNK   900       1.999   1.464  -0.509  1.00  0.00    -0.295 OA
BRANCH  14  16
HETATM   16  C13 UNK   900       4.061   0.296  -0.050  1.00  0.00     0.111 C 
HETATM   17  C14 UNK   900       4.855   0.533   1.231  1.00  0.00     0.053 C 
HETATM   18  C15 UNK   900       4.264  -1.118  -0.584  1.00  0.00     0.053 C 
BRANCH  16  19
HETATM   19  O2  UNK   900       4.554   1.217  -1.021  1.00  0.00    -0.383 OA
HETATM   20  H26 UNK   900       4.496   2.113  -0.647  1.00  0.00     0.211 HD
ENDBRANCH  16  19
ENDBRANCH  14  16
ENDBRANCH  13  14
ENDBRANCH  12  13
ENDBRANCH   1  12
TORSDOF 7
