REMARK  9 active torsions:
REMARK  status: ('A' for Active; 'I' for Inactive)
REMARK    1  A    between atoms: S1_1  and  C7_16 
REMARK    2  A    between atoms: O3_4  and  C8_17 
REMARK    3  A    between atoms: O7_8  and  C18_27 
REMARK    4  A    between atoms: N1_9  and  C1_10 
REMARK       I    between atoms: N1_9  and  C9_18 
REMARK    5  A    between atoms: C1_10  and  C2_11 
REMARK    6  A    between atoms: C1_10  and  C3_12 
REMARK    7  A    between atoms: C3_12  and  C4_13 
REMARK    8  A    between atoms: C6_15  and  C8_17 
REMARK    9  A    between atoms: C8_17  and  C9_18 
ROOT
HETATM    1  C1  UNK   900       0.068   2.203   0.596  1.00  0.00     0.114 C 
ENDROOT
BRANCH   1   2
HETATM    2  N1  UNK   900       1.114   1.264   0.260  1.00  0.00    -0.352 N 
HETATM    3  C9  UNK   900       2.083   0.866   1.168  1.00  0.00     0.249 C 
HETATM    4  O4  UNK   900       2.162   1.253   2.332  1.00  0.00    -0.271 OA
HETATM    5  H9  UNK   900       1.134   0.894  -0.685  1.00  0.00     0.163 HD
BRANCH   3   6
HETATM    6  C8  UNK   900       3.054  -0.146   0.575  1.00  0.00     0.240 C 
BRANCH   6   7
HETATM    7  O3  UNK   900       4.017  -0.497   1.554  1.00  0.00    -0.383 OA
HETATM    8  H21 UNK   900       3.558  -0.954   2.280  1.00  0.00     0.210 HD
ENDBRANCH   6   7
BRANCH   6   9
HETATM    9  C6  UNK   900       2.329  -1.416   0.142  1.00  0.00     0.184 C 
HETATM   10  O2  UNK   900       1.671  -1.162  -1.111  1.00  0.00    -0.312 OA
HETATM   11  C15 UNK   900       2.404  -1.680  -2.144  1.00  0.00     0.260 C 
HETATM   12  O5  UNK   900       2.121  -1.558  -3.325  1.00  0.00    -0.265 OA
HETATM   13  C11 UNK   900       3.618  -2.381  -1.606  1.00  0.00     0.129 C 
HETATM   14  C7  UNK   900       3.278  -2.570  -0.140  1.00  0.00     0.088 C 
BRANCH  14  15
HETATM   15  S1  UNK   900       2.433  -4.175   0.123  1.00  0.00    -0.166 SA
HETATM   16  C21 UNK   900       2.749  -4.332   1.893  1.00  0.00     0.090 C 
ENDBRANCH  14  15
ENDBRANCH   6   9
ENDBRANCH   3   6
ENDBRANCH   1   2
BRANCH   1  17
HETATM   17  C2  UNK   900      -1.290   1.525   0.482  1.00  0.00     0.159 C 
HETATM   18  O1  UNK   900      -1.487   1.171  -0.906  1.00  0.00    -0.309 OA
HETATM   19  C16 UNK   900      -2.537   0.390  -1.278  1.00  0.00     0.297 C 
HETATM   20  O6  UNK   900      -2.864   0.249  -2.449  1.00  0.00    -0.259 OA
HETATM   21  C14 UNK   900      -3.250  -0.311  -0.184  1.00  0.00     0.079 A 
HETATM   22  C10 UNK   900      -2.684  -0.381   1.095  1.00  0.00    -0.037 A 
HETATM   23  C18 UNK   900      -4.473  -0.937  -0.449  1.00  0.00     0.082 A 
HETATM   24  C5  UNK   900      -1.361   0.276   1.349  1.00  0.00     0.074 C 
HETATM   25  C17 UNK   900      -3.341  -1.096   2.101  1.00  0.00     0.008 A 
HETATM   26  C19 UNK   900      -4.563  -1.716   1.838  1.00  0.00     0.003 A 
HETATM   27  C20 UNK   900      -5.128  -1.634   0.566  1.00  0.00     0.037 A 
BRANCH  23  28
HETATM   28  O7  UNK   900      -5.074  -0.888  -1.671  1.00  0.00    -0.360 OA
HETATM   29  H27 UNK   900      -4.602  -0.274  -2.255  1.00  0.00     0.217 HD
ENDBRANCH  23  28
ENDBRANCH   1  17
BRANCH   1  30
HETATM   30  C3  UNK   900       0.131   3.453  -0.300  1.00  0.00     0.031 C 
BRANCH  30  31
HETATM   31  C4  UNK   900       1.490   4.185  -0.310  1.00  0.00    -0.021 C 
HETATM   32  C12 UNK   900       1.899   4.678   1.078  1.00  0.00     0.009 C 
HETATM   33  C13 UNK   900       1.430   5.369  -1.280  1.00  0.00     0.009 C 
ENDBRANCH  30  31
ENDBRANCH   1  30
TORSDOF 9
