REMARK  8 active torsions:
REMARK  status: ('A' for Active; 'I' for Inactive)
REMARK    1  A    between atoms: O1_1  and  C3_6 
REMARK    2  A    between atoms: O3_3  and  C8_11 
REMARK    3  A    between atoms: C1_4  and  C3_6 
REMARK    4  A    between atoms: C2_5  and  C4_7 
REMARK    5  A    between atoms: C3_6  and  C9_12 
REMARK    6  A    between atoms: C4_7  and  C8_11 
REMARK    7  A    between atoms: C8_11  and  C10_13 
REMARK    8  A    between atoms: C9_12  and  C11_14 
ROOT
HETATM    1  O2  UNK   900       2.091  -1.290   1.698  1.00  0.00    -0.292 OA
HETATM    2  C1  UNK   900       0.173  -0.253   0.633  1.00  0.00     0.096 A 
HETATM    3  C2  UNK   900      -0.474  -0.649  -0.707  1.00  0.00     0.025 A 
HETATM    4  C5  UNK   900       1.291  -1.259   0.774  1.00  0.00     0.162 A 
HETATM    5  C6  UNK   900       0.314  -1.846  -1.154  1.00  0.00    -0.011 A 
HETATM    6  C7  UNK   900       1.311  -2.215  -0.346  1.00  0.00    -0.019 A 
HETATM    7  C12 UNK   900       2.281  -3.322  -0.474  1.00  0.00     0.052 C 
ENDROOT
BRANCH   2   8
HETATM    8  C3  UNK   900       0.718   1.167   0.626  1.00  0.00     0.130 C 
BRANCH   8   9
HETATM    9  O1  UNK   900       0.911   1.591   1.973  1.00  0.00    -0.395 OA
HETATM   10  H17 UNK   900       0.044   1.576   2.414  1.00  0.00     0.210 HD
ENDBRANCH   8   9
BRANCH   8  11
HETATM   11  C9  UNK   900       2.037   1.261  -0.149  1.00  0.00     0.032 C 
BRANCH  11  12
HETATM   12  C11 UNK   900       2.369   2.700  -0.553  1.00  0.00    -0.002 C 
HETATM   13  C14 UNK   900       3.700   2.779  -1.283  1.00  0.00     0.005 C 
ENDBRANCH  11  12
ENDBRANCH   8  11
ENDBRANCH   2   8
BRANCH   3  14
HETATM   14  C4  UNK   900      -1.953  -0.989  -0.549  1.00  0.00     0.041 C 
BRANCH  14  15
HETATM   15  C8  UNK   900      -2.774   0.208  -0.059  1.00  0.00     0.118 C 
BRANCH  15  16
HETATM   16  O3  UNK   900      -2.609   1.279  -0.985  1.00  0.00    -0.396 OA
HETATM   17  H18 UNK   900      -2.948   0.984  -1.848  1.00  0.00     0.210 HD
ENDBRANCH  15  16
BRANCH  15  18
HETATM   18  C10 UNK   900      -4.258  -0.164   0.049  1.00  0.00     0.027 C 
HETATM   19  C13 UNK   900      -5.127   1.001   0.505  1.00  0.00     0.007 C 
ENDBRANCH  15  18
ENDBRANCH  14  15
ENDBRANCH   3  14
TORSDOF 8
