REMARK  4 active torsions:
REMARK  status: ('A' for Active; 'I' for Inactive)
REMARK    1  A    between atoms: O2_2  and  C14_17 
REMARK    2  A    between atoms: O3_3  and  C15_18 
REMARK    3  A    between atoms: C7_10  and  C14_17 
REMARK    4  A    between atoms: C8_11  and  C15_18 
ROOT
HETATM    1  O1  UNK   900      -2.101  -2.764   0.811  1.00  0.00    -0.298 OA
HETATM    2  C1  UNK   900       0.698  -0.956   0.320  1.00  0.00     0.026 C 
HETATM    3  C2  UNK   900       2.854   0.187   0.302  1.00  0.00    -0.043 C 
HETATM    4  C3  UNK   900       2.215  -1.205   0.223  1.00  0.00     0.019 C 
HETATM    5  C4  UNK   900       0.519   0.449  -0.235  1.00  0.00    -0.069 C 
HETATM    6  C5  UNK   900       1.884   1.030  -0.540  1.00  0.00     0.043 C 
HETATM    7  C6  UNK   900      -0.118  -2.074  -0.347  1.00  0.00     0.059 C 
HETATM    8  C7  UNK   900      -0.649   1.120  -0.353  1.00  0.00    -0.047 C 
HETATM    9  C8  UNK   900      -2.011   0.577   0.072  1.00  0.00     0.047 C 
HETATM   10  C9  UNK   900       2.926   0.691   1.755  1.00  0.00     0.015 C 
HETATM   11  C10 UNK   900       4.264   0.192  -0.297  1.00  0.00     0.015 C 
HETATM   12  C11 UNK   900      -1.581  -1.949   0.046  1.00  0.00     0.132 C 
HETATM   13  C12 UNK   900      -2.382  -0.791  -0.508  1.00  0.00     0.089 C 
HETATM   14  C13 UNK   900       0.028  -2.190  -1.866  1.00  0.00     0.018 C 
ENDROOT
BRANCH   8  15
HETATM   15  C14 UNK   900      -0.719   2.522  -0.914  1.00  0.00     0.199 C 
BRANCH  15  16
HETATM   16  O2  UNK   900      -1.547   2.526  -2.057  1.00  0.00    -0.397 OA
HETATM   17  H23 UNK   900      -1.600   3.444  -2.373  1.00  0.00     0.209 HD
ENDBRANCH  15  16
ENDBRANCH   8  15
BRANCH   9  18
HETATM   18  C15 UNK   900      -2.197   0.643   1.592  1.00  0.00     0.173 C 
BRANCH  18  19
HETATM   19  O3  UNK   900      -2.083   1.993   1.996  1.00  0.00    -0.400 OA
HETATM   20  H24 UNK   900      -2.213   2.017   2.959  1.00  0.00     0.209 HD
ENDBRANCH  18  19
ENDBRANCH   9  18
TORSDOF 4
