REMARK  4 active torsions:
REMARK  status: ('A' for Active; 'I' for Inactive)
REMARK    1  A    between atoms: S1_1  and  C2_9 
REMARK    2  A    between atoms: O3_4  and  C8_15 
REMARK    3  A    between atoms: O4_5  and  C9_16 
REMARK    4  A    between atoms: C2_9  and  C8_15 
ROOT
HETATM    1  O1  UNK   900      -0.258  -2.265   0.457  1.00  0.00    -0.269 OA
HETATM    2  O2  UNK   900      -1.372   2.826  -0.860  1.00  0.00    -0.271 OA
HETATM    3  N1  UNK   900       0.363  -0.027   0.227  1.00  0.00    -0.298 N 
HETATM    4  N2  UNK   900      -2.109   0.625  -0.567  1.00  0.00    -0.326 N 
HETATM    5  C1  UNK   900      -0.023   1.365   0.478  1.00  0.00     0.189 C 
HETATM    6  C2  UNK   900      -2.004  -0.624   0.240  1.00  0.00     0.186 C 
HETATM    7  C3  UNK   900       1.230   2.226   0.231  1.00  0.00     0.076 C 
HETATM    8  C4  UNK   900       1.760  -0.103   0.107  1.00  0.00     0.077 A 
HETATM    9  C5  UNK   900       2.301   1.184   0.129  1.00  0.00    -0.026 A 
HETATM   10  C6  UNK   900      -0.533  -1.080   0.282  1.00  0.00     0.266 C 
HETATM   11  C7  UNK   900      -1.200   1.689  -0.419  1.00  0.00     0.244 C 
HETATM   12  C9  UNK   900       2.571  -1.217  -0.034  1.00  0.00     0.093 A 
HETATM   13  C10 UNK   900      -3.190   0.749  -1.543  1.00  0.00     0.155 C 
HETATM   14  C11 UNK   900       3.667   1.389   0.021  1.00  0.00     0.010 A 
HETATM   15  C12 UNK   900       3.951  -1.019  -0.138  1.00  0.00     0.039 A 
HETATM   16  C13 UNK   900       4.496   0.274  -0.108  1.00  0.00     0.003 A 
ENDROOT
BRANCH   6  17
HETATM   17  S1  UNK   900      -2.569  -0.355   1.968  1.00  0.00    -0.130 SA
HETATM   18  C14 UNK   900      -3.981   0.706   1.596  1.00  0.00     0.093 C 
ENDBRANCH   6  17
BRANCH   6  19
HETATM   19  C8  UNK   900      -2.850  -1.783  -0.325  1.00  0.00     0.217 C 
BRANCH  19  20
HETATM   20  O3  UNK   900      -2.384  -2.066  -1.626  1.00  0.00    -0.397 OA
HETATM   21  H15 UNK   900      -1.519  -2.502  -1.552  1.00  0.00     0.209 HD
ENDBRANCH  19  20
ENDBRANCH   6  19
BRANCH  12  22
HETATM   22  O4  UNK   900       2.131  -2.496  -0.114  1.00  0.00    -0.358 OA
HETATM   23  H16 UNK   900       2.886  -3.101  -0.217  1.00  0.00     0.217 HD
ENDBRANCH  12  22
TORSDOF 4
