REMARK  1 active torsions:
REMARK  status: ('A' for Active; 'I' for Inactive)
REMARK    1  A    between atoms: O1_1  and  C7_8 
ROOT
HETATM    1  C1  UNK   900      -0.066  -0.241  -0.556  1.00  0.00    -0.015 A 
HETATM    2  C2  UNK   900      -1.208  -1.197  -0.190  1.00  0.00     0.025 A 
HETATM    3  C3  UNK   900      -0.321   1.288  -0.302  1.00  0.00    -0.032 C 
HETATM    4  C4  UNK   900      -0.906  -0.909  -1.636  1.00  0.00     0.021 A 
HETATM    5  C5  UNK   900       1.410  -0.747  -0.330  1.00  0.00    -0.013 C 
HETATM    6  C6  UNK   900       0.289   1.689   1.064  1.00  0.00     0.012 C 
HETATM    7  C7  UNK   900       1.940  -0.205   1.030  1.00  0.00     0.126 C 
HETATM    8  C8  UNK   900      -1.848   1.645  -0.263  1.00  0.00     0.037 C 
HETATM    9  C9  UNK   900      -2.422  -0.653   0.443  1.00  0.00    -0.083 C 
HETATM   10  C10 UNK   900       1.751   1.297   1.215  1.00  0.00     0.033 C 
HETATM   11  C11 UNK   900       0.263   2.171  -1.427  1.00  0.00     0.016 C 
HETATM   12  C12 UNK   900       2.323  -0.338  -1.510  1.00  0.00     0.018 C 
HETATM   13  C13 UNK   900       1.528  -2.299  -0.256  1.00  0.00     0.018 C 
HETATM   14  C14 UNK   900      -2.728   0.654   0.429  1.00  0.00    -0.023 C 
HETATM   15  C15 UNK   900      -3.332  -1.645   1.111  1.00  0.00     0.043 C 
ENDROOT
BRANCH   7  16
HETATM   16  O1  UNK   900       3.327  -0.508   1.177  1.00  0.00    -0.395 OA
HETATM   17  H24 UNK   900       3.604  -0.201   2.057  1.00  0.00     0.210 HD
ENDBRANCH   7  16
TORSDOF 1
