REMARK  8 active torsions:
REMARK  status: ('A' for Active; 'I' for Inactive)
REMARK    1  A    between atoms: O2_2  and  C5_14 
REMARK    2  A    between atoms: O2_2  and  C9_18 
REMARK    3  A    between atoms: O3_3  and  C1_10 
REMARK    4  A    between atoms: O4_4  and  C2_11 
REMARK    5  A    between atoms: O5_5  and  C3_12 
REMARK    6  A    between atoms: O7_7  and  C7_16 
REMARK    7  A    between atoms: O8_8  and  C12_21 
REMARK    8  A    between atoms: C4_13  and  C7_16 
ROOT
HETATM    1  O2  UNK   900       0.475   1.571   1.224  1.00  0.00    -0.317 OA
ENDROOT
BRANCH   1   2
HETATM    2  C5  UNK   900       1.338   0.853   0.343  1.00  0.00     0.298 C 
HETATM    3  O1  UNK   900       1.396  -0.516   0.736  1.00  0.00    -0.348 OA
HETATM    4  C4  UNK   900       2.226  -1.299  -0.123  1.00  0.00     0.179 C 
HETATM    5  C1  UNK   900       3.671  -0.801  -0.048  1.00  0.00     0.183 C 
HETATM    6  C2  UNK   900       3.750   0.688  -0.384  1.00  0.00     0.183 C 
HETATM    7  C3  UNK   900       2.725   1.491   0.417  1.00  0.00     0.205 C 
BRANCH   4   8
HETATM    8  C7  UNK   900       2.106  -2.754   0.321  1.00  0.00     0.198 C 
BRANCH   8   9
HETATM    9  O7  UNK   900       0.747  -3.140   0.236  1.00  0.00    -0.398 OA
HETATM   10  H20 UNK   900       0.692  -4.066   0.528  1.00  0.00     0.209 HD
ENDBRANCH   8   9
ENDBRANCH   4   8
BRANCH   5  11
HETATM   11  O3  UNK   900       4.471  -1.535  -0.972  1.00  0.00    -0.385 OA
HETATM   12  C14 UNK   900       5.846  -1.483  -0.622  1.00  0.00     0.202 C 
ENDBRANCH   5  11
BRANCH   6  13
HETATM   13  O4  UNK   900       5.066   1.144  -0.064  1.00  0.00    -0.390 OA
HETATM   14  H11 UNK   900       5.199   1.037   0.893  1.00  0.00     0.210 HD
ENDBRANCH   6  13
BRANCH   7  15
HETATM   15  O5  UNK   900       2.638   2.813  -0.114  1.00  0.00    -0.388 OA
HETATM   16  H12 UNK   900       2.381   2.745  -1.050  1.00  0.00     0.210 HD
ENDBRANCH   7  15
ENDBRANCH   1   2
BRANCH   1  17
HETATM   17  C9  UNK   900      -0.849   1.365   0.886  1.00  0.00     0.077 C 
HETATM   18  C10 UNK   900      -1.525   0.345   1.437  1.00  0.00     0.026 C 
HETATM   19  C6  UNK   900      -2.959   0.082   1.074  1.00  0.00     0.121 C 
HETATM   20  C8  UNK   900      -3.306   0.580  -0.341  1.00  0.00     0.200 C 
HETATM   21  C13 UNK   900      -3.267  -1.392   1.228  1.00  0.00     0.162 C 
HETATM   22  O6  UNK   900      -2.889  -0.316  -1.380  1.00  0.00    -0.343 OA
HETATM   23  C12 UNK   900      -2.650   1.909  -0.646  1.00  0.00     0.082 C 
HETATM   24  C16 UNK   900      -3.228  -1.636  -1.191  1.00  0.00     0.047 C 
HETATM   25  C17 UNK   900      -3.449  -2.198   0.005  1.00  0.00     0.082 C 
HETATM   26  C18 UNK   900      -3.307  -2.420  -2.463  1.00  0.00     0.076 C 
HETATM   27  C11 UNK   900      -1.494   2.291  -0.053  1.00  0.00     0.003 C 
HETATM   28  C15 UNK   900      -0.845   3.632  -0.267  1.00  0.00     0.054 C 
HETATM   29  O9  UNK   900      -3.340  -1.934   2.330  1.00  0.00    -0.292 OA
BRANCH  23  30
HETATM   30  O8  UNK   900      -3.347   2.661  -1.569  1.00  0.00    -0.362 OA
HETATM   31  H21 UNK   900      -4.092   2.133  -1.901  1.00  0.00     0.217 HD
ENDBRANCH  23  30
ENDBRANCH   1  17
TORSDOF 8
