REMARK  7 active torsions:
REMARK  status: ('A' for Active; 'I' for Inactive)
REMARK    1  A    between atoms: O2_2  and  C5_11 
REMARK    2  A    between atoms: O2_2  and  C12_18 
REMARK    3  A    between atoms: O4_4  and  C13_19 
REMARK    4  A    between atoms: O5_5  and  C16_22 
REMARK    5  A    between atoms: O6_6  and  C17_23 
REMARK    6  A    between atoms: C9_15  and  C10_16 
REMARK    7  A    between atoms: C10_16  and  C14_20 
ROOT
HETATM    1  O1  UNK   900      -3.288   1.036   1.609  1.00  0.00    -0.312 OA
HETATM    2  O3  UNK   900      -1.224   0.512   2.380  1.00  0.00    -0.259 OA
HETATM    3  C1  UNK   900      -4.262  -0.162  -0.266  1.00  0.00     0.071 C 
HETATM    4  C2  UNK   900      -4.149   1.173   0.456  1.00  0.00     0.132 C 
HETATM    5  C3  UNK   900      -2.875  -0.606  -0.622  1.00  0.00    -0.034 A 
HETATM    6  C4  UNK   900      -1.814  -0.294   0.237  1.00  0.00     0.080 A 
HETATM    7  C5  UNK   900      -0.516  -0.720  -0.065  1.00  0.00     0.095 A 
HETATM    8  C6  UNK   900      -2.631  -1.362  -1.774  1.00  0.00     0.044 A 
HETATM    9  C7  UNK   900      -2.065   0.452   1.493  1.00  0.00     0.297 C 
HETATM   10  C8  UNK   900      -5.507   1.652   0.950  1.00  0.00     0.040 C 
HETATM   11  C11 UNK   900      -0.280  -1.459  -1.224  1.00  0.00     0.074 A 
HETATM   12  C13 UNK   900      -1.336  -1.782  -2.076  1.00  0.00     0.069 A 
ENDROOT
BRANCH   7  13
HETATM   13  O2  UNK   900       0.554  -0.432   0.729  1.00  0.00    -0.306 OA
BRANCH  13  14
HETATM   14  C12 UNK   900       1.591   0.294   0.169  1.00  0.00     0.115 A 
HETATM   15  C9  UNK   900       2.876  -0.248   0.111  1.00  0.00    -0.019 A 
HETATM   16  C15 UNK   900       3.918   0.486  -0.454  1.00  0.00     0.046 A 
HETATM   17  C17 UNK   900       3.676   1.763  -0.961  1.00  0.00     0.069 A 
HETATM   18  C18 UNK   900       2.393   2.306  -0.903  1.00  0.00     0.076 A 
HETATM   19  C16 UNK   900       1.350   1.571  -0.338  1.00  0.00     0.102 A 
BRANCH  15  20
HETATM   20  C10 UNK   900       3.153  -1.614   0.648  1.00  0.00     0.041 C 
BRANCH  20  21
HETATM   21  C14 UNK   900       3.247  -1.626   2.180  1.00  0.00     0.000 C 
HETATM   22  C19 UNK   900       3.496  -3.024   2.722  1.00  0.00     0.005 C 
ENDBRANCH  20  21
ENDBRANCH  15  20
BRANCH  17  23
HETATM   23  O6  UNK   900       4.694   2.480  -1.512  1.00  0.00    -0.361 OA
HETATM   24  H20 UNK   900       5.510   1.954  -1.469  1.00  0.00     0.217 HD
ENDBRANCH  17  23
BRANCH  19  25
HETATM   25  O5  UNK   900       0.101   2.112  -0.287  1.00  0.00    -0.358 OA
HETATM   26  H19 UNK   900       0.123   2.999  -0.687  1.00  0.00     0.217 HD
ENDBRANCH  19  25
ENDBRANCH  13  14
ENDBRANCH   7  13
BRANCH  12  27
HETATM   27  O4  UNK   900      -1.102  -2.509  -3.202  1.00  0.00    -0.361 OA
HETATM   28  H18 UNK   900      -1.943  -2.640  -3.673  1.00  0.00     0.217 HD
ENDBRANCH  12  27
TORSDOF 7
