REMARK  13 active torsions:
REMARK  status: ('A' for Active; 'I' for Inactive)
REMARK    1  A    between atoms: O3_3  and  C16_25 
REMARK    2  A    between atoms: O3_3  and  C18_27 
REMARK    3  A    between atoms: O5_5  and  C17_26 
REMARK    4  A    between atoms: N3_9  and  C11_20 
REMARK       I    between atoms: N3_9  and  C13_22 
REMARK    5  A    between atoms: C1_10  and  C3_12 
REMARK    6  A    between atoms: C2_11  and  C5_14 
REMARK    7  A    between atoms: C3_12  and  C7_16 
REMARK    8  A    between atoms: C5_14  and  C8_17 
REMARK    9  A    between atoms: C8_17  and  C11_20 
REMARK   10  A    between atoms: C13_22  and  C14_23 
REMARK   11  A    between atoms: C14_23  and  C15_24 
REMARK   12  A    between atoms: C15_24  and  C18_27 
REMARK   13  A    between atoms: C16_25  and  C17_26 
ROOT
HETATM    1  C8  UNK   900       2.654   2.911  -0.337  1.00  0.00     0.022 C 
ENDROOT
BRANCH   1   2
HETATM    2  C5  UNK   900       2.784   1.559   0.367  1.00  0.00     0.037 C 
BRANCH   2   3
HETATM    3  C2  UNK   900       3.523   0.551  -0.504  1.00  0.00     0.178 C 
HETATM    4  N1  UNK   900       4.180  -0.507   0.270  1.00  0.00    -0.341 N 
HETATM    5  C4  UNK   900       3.473  -1.603   0.774  1.00  0.00     0.243 C 
HETATM    6  C10 UNK   900       5.554  -0.268   0.690  1.00  0.00     0.153 C 
HETATM    7  O1  UNK   900       3.902  -2.367   1.640  1.00  0.00    -0.271 OA
HETATM    8  C1  UNK   900       2.044  -1.707   0.256  1.00  0.00     0.180 C 
HETATM    9  N2  UNK   900       2.032  -1.272  -1.129  1.00  0.00    -0.346 N 
HETATM   10  C6  UNK   900       2.610  -0.086  -1.535  1.00  0.00     0.241 C 
HETATM   11  H6  UNK   900       1.384  -1.698  -1.782  1.00  0.00     0.163 HD
HETATM   12  O2  UNK   900       2.339   0.468  -2.599  1.00  0.00    -0.271 OA
BRANCH   8  13
HETATM   13  C3  UNK   900       1.504  -3.125   0.381  1.00  0.00     0.013 C 
HETATM   14  C9  UNK   900       2.411  -4.101  -0.376  1.00  0.00     0.012 C 
BRANCH  13  15
HETATM   15  C7  UNK   900       0.060  -3.260  -0.140  1.00  0.00     0.002 C 
HETATM   16  C12 UNK   900      -0.937  -2.378   0.599  1.00  0.00     0.005 C 
ENDBRANCH  13  15
ENDBRANCH   8  13
ENDBRANCH   2   3
ENDBRANCH   1   2
BRANCH   1  17
HETATM   17  C11 UNK   900       1.866   3.925   0.487  1.00  0.00     0.122 C 
BRANCH  17  18
HETATM   18  N3  UNK   900       0.535   3.472   0.787  1.00  0.00    -0.361 N 
HETATM   19  C13 UNK   900      -0.565   3.722  -0.029  1.00  0.00     0.217 C 
HETATM   20  O4  UNK   900      -0.530   4.349  -1.084  1.00  0.00    -0.274 OA
HETATM   21  H22 UNK   900       0.405   2.933   1.638  1.00  0.00     0.162 HD
BRANCH  19  22
HETATM   22  C14 UNK   900      -1.839   3.118   0.541  1.00  0.00     0.112 C 
BRANCH  22  23
HETATM   23  C15 UNK   900      -2.095   1.690   0.067  1.00  0.00     0.120 C 
BRANCH  23  24
HETATM   24  C18 UNK   900      -3.394   1.122   0.598  1.00  0.00     0.259 C 
HETATM   25  O6  UNK   900      -4.146   1.689   1.378  1.00  0.00    -0.265 OA
BRANCH  24  26
HETATM   26  O3  UNK   900      -3.579  -0.124   0.070  1.00  0.00    -0.314 OA
BRANCH  26  27
HETATM   27  C16 UNK   900      -4.769  -0.800   0.487  1.00  0.00     0.156 C 
HETATM   28  C19 UNK   900      -4.469  -1.551   1.779  1.00  0.00     0.042 C 
BRANCH  27  29
HETATM   29  C17 UNK   900      -5.281  -1.722  -0.629  1.00  0.00     0.143 C 
HETATM   30  C20 UNK   900      -5.552  -0.967  -1.925  1.00  0.00     0.042 C 
BRANCH  29  31
HETATM   31  O5  UNK   900      -4.315  -2.739  -0.887  1.00  0.00    -0.393 OA
HETATM   32  H35 UNK   900      -4.679  -3.321  -1.575  1.00  0.00     0.210 HD
ENDBRANCH  29  31
ENDBRANCH  27  29
ENDBRANCH  26  27
ENDBRANCH  24  26
ENDBRANCH  23  24
ENDBRANCH  22  23
ENDBRANCH  19  22
ENDBRANCH  17  18
ENDBRANCH   1  17
TORSDOF 13
