REMARK  9 active torsions:
REMARK  status: ('A' for Active; 'I' for Inactive)
REMARK    1  A    between atoms: O2_2  and  C5_14 
REMARK    2  A    between atoms: O2_2  and  C7_16 
REMARK    3  A    between atoms: O3_3  and  C1_10 
REMARK    4  A    between atoms: O4_4  and  C2_11 
REMARK    5  A    between atoms: O5_5  and  C3_12 
REMARK    6  A    between atoms: O7_7  and  C6_15 
REMARK    7  A    between atoms: O8_8  and  C16_25 
REMARK    8  A    between atoms: O9_9  and  C21_30 
REMARK    9  A    between atoms: C4_13  and  C6_15 
ROOT
HETATM    1  O6  UNK   900       1.687  -4.250  -0.415  1.00  0.00    -0.381 OA
HETATM    2  C7  UNK   900       0.991  -0.582  -0.555  1.00  0.00     0.095 A 
HETATM    3  C8  UNK   900       1.583  -1.808  -0.227  1.00  0.00     0.006 A 
HETATM    4  C9  UNK   900       2.842  -1.826   0.390  1.00  0.00    -0.044 A 
HETATM    5  C10 UNK   900       3.496  -3.142   0.722  1.00  0.00     0.070 C 
HETATM    6  C11 UNK   900       2.462  -4.270   0.788  1.00  0.00     0.122 C 
HETATM    7  C12 UNK   900       1.650   0.632  -0.299  1.00  0.00     0.042 A 
HETATM    8  C13 UNK   900       0.844  -3.095  -0.483  1.00  0.00     0.210 C 
HETATM    9  C14 UNK   900       2.929   0.611   0.304  1.00  0.00    -0.017 A 
HETATM   10  C15 UNK   900       3.511  -0.621   0.639  1.00  0.00     0.020 A 
HETATM   11  C16 UNK   900       1.067   1.866  -0.631  1.00  0.00     0.084 A 
HETATM   12  C17 UNK   900       3.138  -5.629   0.892  1.00  0.00     0.040 C 
HETATM   13  C19 UNK   900       3.589   1.825   0.555  1.00  0.00     0.049 A 
HETATM   14  C20 UNK   900       1.736   3.062  -0.374  1.00  0.00     0.074 A 
HETATM   15  C21 UNK   900       2.996   3.042   0.217  1.00  0.00     0.071 A 
ENDROOT
BRANCH   2  16
HETATM   16  O2  UNK   900      -0.253  -0.611  -1.126  1.00  0.00    -0.316 OA
BRANCH  16  17
HETATM   17  C5  UNK   900      -1.367  -0.579  -0.240  1.00  0.00     0.298 C 
HETATM   18  O1  UNK   900      -1.762   0.770   0.026  1.00  0.00    -0.348 OA
HETATM   19  C4  UNK   900      -2.838   0.854   0.965  1.00  0.00     0.179 C 
HETATM   20  C1  UNK   900      -4.085   0.134   0.434  1.00  0.00     0.183 C 
HETATM   21  C2  UNK   900      -3.744  -1.306   0.041  1.00  0.00     0.183 C 
HETATM   22  C3  UNK   900      -2.525  -1.344  -0.881  1.00  0.00     0.205 C 
BRANCH  19  23
HETATM   23  C6  UNK   900      -3.111   2.333   1.220  1.00  0.00     0.198 C 
BRANCH  23  24
HETATM   24  O7  UNK   900      -1.927   2.931   1.716  1.00  0.00    -0.398 OA
HETATM   25  H23 UNK   900      -2.120   3.872   1.862  1.00  0.00     0.209 HD
ENDBRANCH  23  24
ENDBRANCH  19  23
BRANCH  20  26
HETATM   26  O3  UNK   900      -5.086   0.122   1.449  1.00  0.00    -0.385 OA
HETATM   27  C18 UNK   900      -6.378  -0.081   0.898  1.00  0.00     0.202 C 
ENDBRANCH  20  26
BRANCH  21  28
HETATM   28  O4  UNK   900      -4.868  -1.892  -0.611  1.00  0.00    -0.390 OA
HETATM   29  H13 UNK   900      -4.623  -2.800  -0.856  1.00  0.00     0.210 HD
ENDBRANCH  21  28
BRANCH  22  30
HETATM   30  O5  UNK   900      -2.844  -0.713  -2.125  1.00  0.00    -0.388 OA
HETATM   31  H14 UNK   900      -2.903   0.246  -1.977  1.00  0.00     0.210 HD
ENDBRANCH  22  30
ENDBRANCH  16  17
ENDBRANCH   2  16
BRANCH  11  32
HETATM   32  O8  UNK   900      -0.164   1.971  -1.215  1.00  0.00    -0.355 OA
HETATM   33  C22 UNK   900      -0.203   1.967  -2.639  1.00  0.00     0.210 C 
ENDBRANCH  11  32
BRANCH  15  34
HETATM   34  O9  UNK   900       3.649   4.210   0.468  1.00  0.00    -0.356 OA
HETATM   35  C23 UNK   900       2.985   5.417   0.098  1.00  0.00     0.210 C 
ENDBRANCH  15  34
TORSDOF 9
