REMARK  4 active torsions:
REMARK  status: ('A' for Active; 'I' for Inactive)
REMARK    1  A    between atoms: C1_6  and  C2_7 
REMARK    2  A    between atoms: C2_7  and  C6_11 
REMARK    3  A    between atoms: C3_8  and  C4_9 
REMARK    4  A    between atoms: C4_9  and  C9_14 
ROOT
HETATM    1  O1  UNK   900       1.124   1.481   1.827  1.00  0.00    -0.271 OA
HETATM    2  O2  UNK   900       2.271  -3.183  -0.472  1.00  0.00    -0.271 OA
HETATM    3  N1  UNK   900       2.780  -0.974  -0.079  1.00  0.00    -0.346 N 
HETATM    4  N2  UNK   900       0.524  -0.670   1.296  1.00  0.00    -0.346 N 
HETATM    5  C1  UNK   900       2.295   0.394   0.008  1.00  0.00     0.180 C 
HETATM    6  C3  UNK   900       0.506  -1.758   0.332  1.00  0.00     0.181 C 
HETATM    7  C5  UNK   900       1.301   0.466   1.156  1.00  0.00     0.241 C 
HETATM    8  C7  UNK   900       1.934  -2.067  -0.079  1.00  0.00     0.241 C 
HETATM    9  H6  UNK   900       3.729  -1.147  -0.393  1.00  0.00     0.163 HD
HETATM   10  H9  UNK   900      -0.181  -0.671   2.027  1.00  0.00     0.163 HD
ENDROOT
BRANCH   6  11
HETATM   11  C4  UNK   900      -0.383  -1.467  -0.867  1.00  0.00     0.075 C 
BRANCH  11  12
HETATM   12  C9  UNK   900      -1.803  -1.178  -0.454  1.00  0.00    -0.028 A 
HETATM   13  C10 UNK   900      -2.422   0.102  -0.387  1.00  0.00    -0.002 A 
HETATM   14  C13 UNK   900      -3.736  -0.100   0.040  1.00  0.00     0.042 A 
HETATM   15  C14 UNK   900      -1.989   1.417  -0.651  1.00  0.00     0.014 A 
HETATM   16  N3  UNK   900      -3.898  -1.455   0.224  1.00  0.00    -0.365 N 
HETATM   17  C15 UNK   900      -4.642   0.951   0.219  1.00  0.00     0.030 A 
HETATM   18  C12 UNK   900      -2.736  -2.114  -0.072  1.00  0.00     0.096 A 
HETATM   19  H17 UNK   900      -4.753  -1.897   0.533  1.00  0.00     0.165 HD
HETATM   20  C17 UNK   900      -4.190   2.247  -0.049  1.00  0.00     0.002 A 
HETATM   21  C16 UNK   900      -2.885   2.478  -0.477  1.00  0.00     0.001 A 
ENDBRANCH  11  12
ENDBRANCH   6  11
BRANCH   5  22
HETATM   22  C2  UNK   900       3.447   1.369   0.203  1.00  0.00     0.013 C 
HETATM   23  C8  UNK   900       4.154   1.085   1.534  1.00  0.00     0.012 C 
BRANCH  22  24
HETATM   24  C6  UNK   900       4.472   1.316  -0.947  1.00  0.00     0.002 C 
HETATM   25  C11 UNK   900       3.876   1.657  -2.306  1.00  0.00     0.005 C 
ENDBRANCH  22  24
ENDBRANCH   5  22
TORSDOF 4
