REMARK  5 active torsions:
REMARK  status: ('A' for Active; 'I' for Inactive)
REMARK    1  A    between atoms: O2_3  and  C1_6 
REMARK    2  A    between atoms: O3_4  and  C3_8 
REMARK    3  A    between atoms: C1_6  and  C2_7 
REMARK    4  A    between atoms: C1_6  and  C3_8 
REMARK    5  A    between atoms: C3_8  and  C4_9 
ROOT
HETATM    1  C1  UNK   900      -0.624  -0.730  -0.029  1.00  0.00     0.181 C 
ENDROOT
BRANCH   1   2
HETATM    2  O2  UNK   900      -1.080  -2.047   0.291  1.00  0.00    -0.390 OA
HETATM    3  H9  UNK   900      -0.436  -2.681  -0.066  1.00  0.00     0.210 HD
ENDBRANCH   1   2
BRANCH   1   4
HETATM    4  C2  UNK   900       0.672  -0.500   0.738  1.00  0.00     0.187 A 
HETATM    5  O1  UNK   900       1.046   0.881   0.636  1.00  0.00    -0.306 OA
HETATM    6  C7  UNK   900       2.277   0.980   0.054  1.00  0.00     0.289 A 
HETATM    7  O4  UNK   900       2.870   2.020  -0.178  1.00  0.00    -0.260 OA
HETATM    8  C6  UNK   900       2.772  -0.370  -0.246  1.00  0.00     0.012 A 
HETATM    9  C5  UNK   900       1.827  -1.216   0.156  1.00  0.00     0.021 A 
HETATM   10  C9  UNK   900       4.082  -0.643  -0.875  1.00  0.00     0.054 C 
ENDBRANCH   1   4
BRANCH   1  11
HETATM   11  C3  UNK   900      -1.742   0.276   0.306  1.00  0.00     0.167 C 
BRANCH  11  12
HETATM   12  O3  UNK   900      -1.972   0.248   1.720  1.00  0.00    -0.391 OA
HETATM   13  H10 UNK   900      -2.432   1.070   1.961  1.00  0.00     0.210 HD
ENDBRANCH  11  12
BRANCH  11  14
HETATM   14  C4  UNK   900      -3.084   0.005  -0.397  1.00  0.00     0.109 C 
HETATM   15 CL1  UNK   900      -2.848   0.130  -2.179  1.00  0.00    -0.123 Cl
HETATM   16  C8  UNK   900      -4.197   0.966   0.002  1.00  0.00     0.029 C 
ENDBRANCH  11  14
ENDBRANCH   1  11
TORSDOF 5
