REMARK  9 active torsions:
REMARK  status: ('A' for Active; 'I' for Inactive)
REMARK    1  A    between atoms: O1_1  and  C2_7 
REMARK    2  A    between atoms: O2_2  and  C4_9 
REMARK    3  A    between atoms: O4_4  and  C10_15 
REMARK    4  A    between atoms: C1_6  and  C2_7 
REMARK    5  A    between atoms: C1_6  and  C3_8 
REMARK    6  A    between atoms: C2_7  and  C4_9 
REMARK    7  A    between atoms: C3_8  and  C5_10 
REMARK    8  A    between atoms: C4_9  and  C7_12 
REMARK    9  A    between atoms: C5_10  and  C6_11 
ROOT
HETATM    1  C4  UNK   900      -0.155  -1.845  -0.718  1.00  0.00     0.204 C 
ENDROOT
BRANCH   1   2
HETATM    2  O2  UNK   900      -0.612  -3.147  -0.349  1.00  0.00    -0.386 OA
HETATM    3  H16 UNK   900      -1.469  -3.295  -0.784  1.00  0.00     0.210 HD
ENDBRANCH   1   2
BRANCH   1   4
HETATM    4  C2  UNK   900       1.234  -1.645  -0.087  1.00  0.00     0.153 C 
BRANCH   4   5
HETATM    5  O1  UNK   900       2.101  -2.711  -0.479  1.00  0.00    -0.393 OA
HETATM    6  H11 UNK   900       2.191  -2.678  -1.446  1.00  0.00     0.210 HD
ENDBRANCH   4   5
BRANCH   4   7
HETATM    7  C1  UNK   900       1.884  -0.307  -0.461  1.00  0.00     0.035 C 
BRANCH   7   8
HETATM    8  C3  UNK   900       3.280  -0.158   0.159  1.00  0.00     0.002 C 
BRANCH   8   9
HETATM    9  C5  UNK   900       3.950   1.181  -0.164  1.00  0.00    -0.000 C 
BRANCH   9  10
HETATM   10  C6  UNK   900       5.369   1.303   0.394  1.00  0.00    -0.005 C 
HETATM   11  C8  UNK   900       5.983   2.653   0.056  1.00  0.00     0.005 C 
ENDBRANCH   9  10
ENDBRANCH   8   9
ENDBRANCH   7   8
ENDBRANCH   4   7
ENDBRANCH   1   4
BRANCH   1  12
HETATM   12  C7  UNK   900      -1.182  -0.837  -0.307  1.00  0.00     0.090 A 
HETATM   13  O3  UNK   900      -1.394  -0.757   1.092  1.00  0.00    -0.277 OA
HETATM   14  C11 UNK   900      -2.305   0.119   1.619  1.00  0.00     0.290 A 
HETATM   15  O5  UNK   900      -2.505   0.204   2.826  1.00  0.00    -0.260 OA
HETATM   16  C12 UNK   900      -3.049   0.970   0.669  1.00  0.00     0.119 A 
HETATM   17  C10 UNK   900      -2.823   0.870  -0.644  1.00  0.00     0.076 A 
HETATM   18  C9  UNK   900      -1.860  -0.061  -1.162  1.00  0.00     0.072 A 
BRANCH  17  19
HETATM   19  O4  UNK   900      -3.504   1.653  -1.551  1.00  0.00    -0.356 OA
HETATM   20  C13 UNK   900      -4.412   2.514  -0.891  1.00  0.00     0.210 C 
ENDBRANCH  17  19
ENDBRANCH   1  12
TORSDOF 9
