REMARK  4 active torsions:
REMARK  status: ('A' for Active; 'I' for Inactive)
REMARK    1  A    between atoms: O2_2  and  C2_6 
REMARK    2  A    between atoms: O3_3  and  C4_8 
REMARK    3  A    between atoms: C1_5  and  C2_6 
REMARK    4  A    between atoms: C1_5  and  C3_7 
ROOT
HETATM    1  O1  UNK   900       0.058  -1.256   0.312  1.00  0.00    -0.273 OA
HETATM    2  O4  UNK   900      -1.486  -2.814  -0.389  1.00  0.00    -0.260 OA
HETATM    3  C2  UNK   900       0.082   0.176   0.438  1.00  0.00     0.221 A 
HETATM    4  C4  UNK   900      -1.281   0.554   0.005  1.00  0.00     0.114 A 
HETATM    5  C7  UNK   900      -2.017  -0.491  -0.353  1.00  0.00     0.120 A 
HETATM    6  C8  UNK   900      -1.158  -1.661  -0.163  1.00  0.00     0.288 A 
ENDROOT
BRANCH   3   7
HETATM    7  O2  UNK   900       0.278   0.573   1.788  1.00  0.00    -0.360 OA
HETATM    8  H11 UNK   900       1.148   0.263   2.083  1.00  0.00     0.213 HD
ENDBRANCH   3   7
BRANCH   3   9
HETATM    9  C1  UNK   900       1.179   0.734  -0.458  1.00  0.00     0.080 C 
BRANCH   9  10
HETATM   10  C3  UNK   900       2.600   0.408   0.033  1.00  0.00    -0.017 C 
HETATM   11  C5  UNK   900       2.858  -1.097   0.116  1.00  0.00     0.009 C 
HETATM   12  C6  UNK   900       3.632   1.059  -0.891  1.00  0.00     0.009 C 
ENDBRANCH   9  10
ENDBRANCH   3   9
BRANCH   4  13
HETATM   13  O3  UNK   900      -1.700   1.854   0.002  1.00  0.00    -0.354 OA
HETATM   14  C9  UNK   900      -3.045   1.961  -0.439  1.00  0.00     0.209 C 
ENDBRANCH   4  13
TORSDOF 4
