REMARK  12 active torsions:
REMARK  status: ('A' for Active; 'I' for Inactive)
REMARK    1  A    between atoms: C1_6  and  C5_10 
REMARK    2  A    between atoms: C4_9  and  C11_16 
REMARK    3  A    between atoms: C5_10  and  C12_17 
REMARK    4  A    between atoms: C11_16  and  C14_19 
REMARK    5  A    between atoms: C12_17  and  C15_20 
REMARK    6  A    between atoms: C14_19  and  C16_21 
REMARK    7  A    between atoms: C15_20  and  C17_22 
REMARK    8  A    between atoms: C16_21  and  C18_23 
REMARK    9  A    between atoms: C17_22  and  C19_24 
REMARK   10  A    between atoms: C18_23  and  C20_25 
REMARK   11  A    between atoms: C19_24  and  C21_26 
REMARK   12  A    between atoms: C20_25  and  C22_27 
ROOT
HETATM    1  O1  UNK   900      -3.985  -0.683  -1.139  1.00  0.00    -0.301 OA
HETATM    2  O2  UNK   900      -3.391   0.951  -2.651  1.00  0.00    -0.264 OA
HETATM    3  O3  UNK   900      -4.256  -0.744   2.093  1.00  0.00    -0.289 OA
HETATM    4  C1  UNK   900      -1.863  -1.346  -0.514  1.00  0.00     0.057 C 
HETATM    5  C2  UNK   900      -1.775   0.111  -0.996  1.00  0.00     0.076 C 
HETATM    6  C3  UNK   900      -3.311  -1.347  -0.052  1.00  0.00     0.137 C 
HETATM    7  C4  UNK   900      -1.924   1.125   0.149  1.00  0.00    -0.045 C 
HETATM    8  C6  UNK   900      -3.106   0.200  -1.732  1.00  0.00     0.273 C 
HETATM    9  C7  UNK   900      -3.493  -0.448   1.175  1.00  0.00     0.190 C 
HETATM   10  C8  UNK   900      -2.723   0.852   1.208  1.00  0.00    -0.009 C 
HETATM   11  C9  UNK   900      -0.589   0.304  -1.942  1.00  0.00     0.031 C 
HETATM   12  C10 UNK   900      -3.900  -2.735   0.138  1.00  0.00     0.056 C 
HETATM   13  C13 UNK   900      -2.944   1.702   2.424  1.00  0.00     0.052 C 
ENDROOT
BRANCH   4  14
HETATM   14  C5  UNK   900      -0.823  -1.797   0.506  1.00  0.00     0.088 C 
BRANCH  14  15
HETATM   15  C12 UNK   900       0.494  -2.184  -0.140  1.00  0.00     0.127 C 
HETATM   16  O4  UNK   900       0.560  -2.638  -1.281  1.00  0.00    -0.298 OA
BRANCH  15  17
HETATM   17  C15 UNK   900       1.732  -1.939   0.711  1.00  0.00     0.078 C 
BRANCH  17  18
HETATM   18  C17 UNK   900       3.045  -2.271   0.003  1.00  0.00     0.007 C 
BRANCH  18  19
HETATM   19  C19 UNK   900       4.271  -1.941   0.861  1.00  0.00     0.000 C 
BRANCH  19  20
HETATM   20  C21 UNK   900       5.567  -2.310   0.139  1.00  0.00    -0.005 C 
HETATM   21  C23 UNK   900       6.787  -2.012   0.996  1.00  0.00     0.005 C 
ENDBRANCH  19  20
ENDBRANCH  18  19
ENDBRANCH  17  18
ENDBRANCH  15  17
ENDBRANCH  14  15
ENDBRANCH   4  14
BRANCH   7  22
HETATM   22  C11 UNK   900      -1.181   2.428  -0.005  1.00  0.00     0.114 C 
BRANCH  22  23
HETATM   23  C14 UNK   900       0.192   2.337   0.627  1.00  0.00     0.130 C 
HETATM   24  O5  UNK   900       0.605   1.333   1.206  1.00  0.00    -0.298 OA
BRANCH  23  25
HETATM   25  C16 UNK   900       1.020   3.612   0.526  1.00  0.00     0.078 C 
BRANCH  25  26
HETATM   26  C18 UNK   900       2.529   3.374   0.543  1.00  0.00     0.007 C 
BRANCH  26  27
HETATM   27  C20 UNK   900       2.994   2.484  -0.614  1.00  0.00     0.000 C 
BRANCH  27  28
HETATM   28  C22 UNK   900       4.503   2.243  -0.554  1.00  0.00    -0.005 C 
HETATM   29  C24 UNK   900       4.967   1.338  -1.684  1.00  0.00     0.005 C 
ENDBRANCH  27  28
ENDBRANCH  26  27
ENDBRANCH  25  26
ENDBRANCH  23  25
ENDBRANCH  22  23
ENDBRANCH   7  22
TORSDOF 12
