REMARK  7 active torsions:
REMARK  status: ('A' for Active; 'I' for Inactive)
REMARK    1  A    between atoms: O1_1  and  C10_14 
REMARK    2  A    between atoms: O2_2  and  C11_15 
REMARK    3  A    between atoms: O3_3  and  C14_18 
REMARK    4  A    between atoms: O4_4  and  C15_19 
REMARK    5  A    between atoms: C2_6  and  C11_15 
REMARK    6  A    between atoms: C8_12  and  C14_18 
REMARK    7  A    between atoms: C9_13  and  C15_19 
ROOT
HETATM    1  C1  UNK   900      -0.452  -1.114   0.513  1.00  0.00     0.019 C 
HETATM    2  C2  UNK   900      -2.688  -0.144   0.350  1.00  0.00    -0.018 C 
HETATM    3  C3  UNK   900      -1.948  -1.483   0.443  1.00  0.00     0.021 C 
HETATM    4  C4  UNK   900      -0.373   0.226  -0.199  1.00  0.00    -0.070 C 
HETATM    5  C5  UNK   900       0.458  -2.239  -0.020  1.00  0.00    -0.008 C 
HETATM    6  C6  UNK   900      -1.771   0.660  -0.585  1.00  0.00     0.046 C 
HETATM    7  C7  UNK   900       1.932  -2.014   0.355  1.00  0.00     0.037 C 
HETATM    8  C8  UNK   900       0.742   0.967  -0.381  1.00  0.00    -0.045 C 
HETATM    9  C9  UNK   900       2.124   0.583   0.133  1.00  0.00     0.069 C 
HETATM   10  C10 UNK   900       2.619  -0.812  -0.297  1.00  0.00     0.128 C 
HETATM   11  C12 UNK   900      -2.816   0.527   1.730  1.00  0.00     0.018 C 
HETATM   12  C13 UNK   900       0.311  -2.515  -1.524  1.00  0.00     0.011 C 
ENDROOT
BRANCH   2  13
HETATM   13  C11 UNK   900      -4.086  -0.316  -0.251  1.00  0.00     0.173 C 
BRANCH  13  14
HETATM   14  O2  UNK   900      -4.648   0.968  -0.445  1.00  0.00    -0.400 OA
HETATM   15  H24 UNK   900      -5.534   0.839  -0.824  1.00  0.00     0.209 HD
ENDBRANCH  13  14
ENDBRANCH   2  13
BRANCH   8  16
HETATM   16  C14 UNK   900       0.721   2.293  -1.105  1.00  0.00     0.199 C 
BRANCH  16  17
HETATM   17  O3  UNK   900       1.562   2.220  -2.236  1.00  0.00    -0.397 OA
HETATM   18  H25 UNK   900       1.554   3.095  -2.660  1.00  0.00     0.209 HD
ENDBRANCH  16  17
ENDBRANCH   8  16
BRANCH   9  19
HETATM   19  C15 UNK   900       2.250   0.850   1.641  1.00  0.00     0.175 C 
BRANCH  19  20
HETATM   20  O4  UNK   900       2.046   2.231   1.862  1.00  0.00    -0.400 OA
HETATM   21  H26 UNK   900       2.135   2.386   2.817  1.00  0.00     0.209 HD
ENDBRANCH  19  20
ENDBRANCH   9  19
BRANCH  10  22
HETATM   22  O1  UNK   900       4.017  -0.887   0.017  1.00  0.00    -0.395 OA
HETATM   23  H23 UNK   900       4.356  -1.724  -0.344  1.00  0.00     0.210 HD
ENDBRANCH  10  22
TORSDOF 7
