REMARK  5 active torsions:
REMARK  status: ('A' for Active; 'I' for Inactive)
REMARK    1  A    between atoms: O2_2  and  C1_6 
REMARK    2  A    between atoms: O3_3  and  C2_7 
REMARK    3  A    between atoms: O4_4  and  C6_11 
REMARK    4  A    between atoms: C1_6  and  C4_9 
REMARK    5  A    between atoms: C1_6  and  C6_11 
ROOT
HETATM    1  O1  UNK   900      -1.660  -1.083   0.900  1.00  0.00    -0.310 OA
HETATM    2  O5  UNK   900       0.463  -1.796   1.196  1.00  0.00    -0.259 OA
HETATM    3  C2  UNK   900      -2.231   0.498  -0.862  1.00  0.00     0.171 C 
HETATM    4  C3  UNK   900      -2.510   0.033   0.562  1.00  0.00     0.160 C 
HETATM    5  C4  UNK   900       0.140   0.019  -0.292  1.00  0.00     0.047 C 
HETATM    6  C5  UNK   900      -0.760   0.689  -1.026  1.00  0.00     0.023 C 
HETATM    7  C7  UNK   900      -0.323  -1.016   0.667  1.00  0.00     0.292 C 
HETATM    8  C8  UNK   900      -3.954  -0.421   0.751  1.00  0.00     0.043 C 
ENDROOT
BRANCH   5   9
HETATM    9  C1  UNK   900       1.617   0.206  -0.446  1.00  0.00     0.188 C 
BRANCH   9  10
HETATM   10  O2  UNK   900       2.170  -1.025  -0.901  1.00  0.00    -0.383 OA
HETATM   11  C10 UNK   900       1.986  -1.191  -2.299  1.00  0.00     0.202 C 
ENDBRANCH   9  10
BRANCH   9  12
HETATM   12  C6  UNK   900       2.334   0.646   0.840  1.00  0.00     0.147 C 
HETATM   13  C9  UNK   900       3.839   0.838   0.684  1.00  0.00     0.042 C 
BRANCH  12  14
HETATM   14  O4  UNK   900       1.772   1.862   1.327  1.00  0.00    -0.393 OA
HETATM   15  H13 UNK   900       2.214   2.078   2.166  1.00  0.00     0.210 HD
ENDBRANCH  12  14
ENDBRANCH   9  12
ENDBRANCH   5   9
BRANCH   3  16
HETATM   16  O3  UNK   900      -2.881   1.740  -1.103  1.00  0.00    -0.389 OA
HETATM   17  H12 UNK   900      -2.736   1.975  -2.035  1.00  0.00     0.210 HD
ENDBRANCH   3  16
TORSDOF 5
