REMARK  7 active torsions:
REMARK  status: ('A' for Active; 'I' for Inactive)
REMARK    1  A    between atoms: O2_2  and  C4_12 
REMARK    2  A    between atoms: O2_2  and  C6_14 
REMARK    3  A    between atoms: O3_3  and  C1_9 
REMARK    4  A    between atoms: O4_4  and  C2_10 
REMARK    5  A    between atoms: O5_5  and  C5_13 
REMARK    6  A    between atoms: O6_6  and  C14_22 
REMARK    7  A    between atoms: C3_11  and  C5_13 
ROOT
HETATM    1  N1  UNK   900       0.884   0.313  -0.707  1.00  0.00    -0.241 NA
HETATM    2  N2  UNK   900       2.886  -1.183   0.453  1.00  0.00    -0.241 NA
HETATM    3  C6  UNK   900      -0.565  -1.567  -0.634  1.00  0.00     0.103 A 
HETATM    4  C7  UNK   900       0.670  -0.973  -0.386  1.00  0.00     0.119 A 
HETATM    5  C8  UNK   900      -0.807  -2.900  -0.307  1.00  0.00     0.039 A 
HETATM    6  C9  UNK   900       1.687  -1.732   0.203  1.00  0.00     0.089 A 
HETATM    7  C10 UNK   900       0.201  -3.653   0.277  1.00  0.00     0.005 A 
HETATM    8  C11 UNK   900       1.439  -3.065   0.528  1.00  0.00     0.034 A 
HETATM    9  C12 UNK   900       2.083   0.862  -0.458  1.00  0.00     0.089 A 
HETATM   10  C13 UNK   900       3.100   0.103   0.131  1.00  0.00     0.119 A 
HETATM   11  C14 UNK   900       4.335   0.697   0.380  1.00  0.00     0.096 A 
HETATM   12  C15 UNK   900       2.331   2.194  -0.783  1.00  0.00     0.034 A 
HETATM   13  C16 UNK   900       4.577   2.030   0.053  1.00  0.00     0.039 A 
HETATM   14  C17 UNK   900       3.569   2.783  -0.532  1.00  0.00     0.005 A 
ENDROOT
BRANCH   3  15
HETATM   15  O2  UNK   900      -1.572  -0.844  -1.209  1.00  0.00    -0.315 OA
BRANCH  15  16
HETATM   16  C4  UNK   900      -2.774  -0.705  -0.458  1.00  0.00     0.298 C 
HETATM   17  O1  UNK   900      -2.506  -0.090   0.811  1.00  0.00    -0.348 OA
HETATM   18  C3  UNK   900      -2.899   1.295   0.762  1.00  0.00     0.179 C 
HETATM   19  C1  UNK   900      -3.420   1.566  -0.648  1.00  0.00     0.182 C 
HETATM   20  C2  UNK   900      -3.775   0.190  -1.172  1.00  0.00     0.205 C 
BRANCH  18  21
HETATM   21  C5  UNK   900      -3.950   1.517   1.841  1.00  0.00     0.198 C 
BRANCH  21  22
HETATM   22  O5  UNK   900      -3.375   1.230   3.106  1.00  0.00    -0.398 OA
HETATM   23  H9  UNK   900      -4.064   1.385   3.775  1.00  0.00     0.209 HD
ENDBRANCH  21  22
ENDBRANCH  18  21
BRANCH  19  24
HETATM   24  O3  UNK   900      -2.364   2.094  -1.446  1.00  0.00    -0.390 OA
HETATM   25  H7  UNK   900      -2.118   2.956  -1.070  1.00  0.00     0.210 HD
ENDBRANCH  19  24
BRANCH  20  26
HETATM   26  O4  UNK   900      -5.096  -0.137  -0.759  1.00  0.00    -0.388 OA
HETATM   27  H8  UNK   900      -5.284  -1.038  -1.070  1.00  0.00     0.210 HD
ENDBRANCH  20  26
ENDBRANCH  15  16
ENDBRANCH   3  15
BRANCH  11  28
HETATM   28  O6  UNK   900       5.342  -0.026   0.955  1.00  0.00    -0.358 OA
HETATM   29  H16 UNK   900       6.125   0.542   1.054  1.00  0.00     0.217 HD
ENDBRANCH  11  28
TORSDOF 7
