REMARK  3 active torsions:
REMARK  status: ('A' for Active; 'I' for Inactive)
REMARK    1  A    between atoms: O1_1  and  C5_9 
REMARK    2  A    between atoms: O2_2  and  C6_10 
REMARK    3  A    between atoms: O4_4  and  C11_15 
ROOT
HETATM    1  O3  UNK   900       0.308   2.651  -0.044  1.00  0.00    -0.292 OA
HETATM    2  C1  UNK   900       1.318  -0.800  -0.218  1.00  0.00     0.031 C 
HETATM    3  C2  UNK   900       1.443   0.576   0.452  1.00  0.00     0.070 C 
HETATM    4  C3  UNK   900       2.564  -1.663   0.046  1.00  0.00     0.011 C 
HETATM    5  C4  UNK   900       2.741   1.278   0.031  1.00  0.00     0.044 C 
HETATM    6  C5  UNK   900       0.041  -1.508   0.268  1.00  0.00     0.159 C 
HETATM    7  C6  UNK   900       3.970   0.414   0.300  1.00  0.00     0.118 C 
HETATM    8  C7  UNK   900       3.845  -0.949  -0.371  1.00  0.00     0.032 C 
HETATM    9  C8  UNK   900       0.232   1.435   0.111  1.00  0.00     0.165 C 
HETATM   10  C9  UNK   900      -1.187  -0.635   0.124  1.00  0.00     0.018 A 
HETATM   11  C10 UNK   900      -1.091   0.763   0.042  1.00  0.00     0.022 A 
HETATM   12  C11 UNK   900      -2.465  -1.219   0.119  1.00  0.00     0.075 A 
HETATM   13  C12 UNK   900      -2.245   1.550  -0.089  1.00  0.00     0.022 A 
HETATM   14  C13 UNK   900      -3.501   0.948  -0.116  1.00  0.00    -0.058 A 
HETATM   15  C14 UNK   900      -3.613  -0.434  -0.006  1.00  0.00     0.044 A 
HETATM   16  C15 UNK   900      -4.727   1.787  -0.250  1.00  0.00     0.048 C 
ENDROOT
BRANCH   6  17
HETATM   17  O1  UNK   900      -0.109  -2.722  -0.470  1.00  0.00    -0.390 OA
HETATM   18  H11 UNK   900      -0.329  -2.490  -1.389  1.00  0.00     0.210 HD
ENDBRANCH   6  17
BRANCH  12  19
HETATM   19  O4  UNK   900      -2.640  -2.565   0.270  1.00  0.00    -0.360 OA
HETATM   20  H18 UNK   900      -3.590  -2.774   0.247  1.00  0.00     0.217 HD
ENDBRANCH  12  19
BRANCH   7  21
HETATM   21  O2  UNK   900       5.118   1.091  -0.199  1.00  0.00    -0.396 OA
HETATM   22  H13 UNK   900       5.891   0.530  -0.016  1.00  0.00     0.210 HD
ENDBRANCH   7  21
TORSDOF 3
