REMARK  7 active torsions:
REMARK  status: ('A' for Active; 'I' for Inactive)
REMARK    1  A    between atoms: O1_1  and  C6_10 
REMARK    2  A    between atoms: O3_3  and  C12_16 
REMARK    3  A    between atoms: C1_5  and  C4_8 
REMARK    4  A    between atoms: C2_6  and  C6_10 
REMARK    5  A    between atoms: C3_7  and  C5_9 
REMARK    6  A    between atoms: C5_9  and  C10_14 
REMARK    7  A    between atoms: C10_14  and  C14_18 
ROOT
HETATM    1  C1  UNK   900      -0.459   0.959  -0.741  1.00  0.00     0.006 A 
HETATM    2  C2  UNK   900       0.449   1.858   0.069  1.00  0.00    -0.014 A 
HETATM    3  C3  UNK   900       1.027   0.857  -0.924  1.00  0.00     0.002 A 
HETATM    4  C7  UNK   900       0.627   1.654   1.552  1.00  0.00     0.018 C 
ENDROOT
BRANCH   1   5
HETATM    5  C4  UNK   900      -1.272  -0.145  -0.118  1.00  0.00     0.001 C 
HETATM    6  C8  UNK   900      -2.546   0.359   0.596  1.00  0.00     0.010 C 
HETATM    7  C11 UNK   900      -3.309  -0.849   1.153  1.00  0.00     0.175 C 
HETATM    8  C13 UNK   900      -3.471   1.190  -0.304  1.00  0.00     0.012 C 
HETATM    9  O2  UNK   900      -3.627  -1.786   0.124  1.00  0.00    -0.361 OA
HETATM   10  C12 UNK   900      -2.477  -2.337  -0.520  1.00  0.00     0.257 C 
HETATM   11  C9  UNK   900      -1.612  -1.240  -1.141  1.00  0.00     0.066 C 
BRANCH  10  12
HETATM   12  O3  UNK   900      -1.684  -3.124   0.364  1.00  0.00    -0.371 OA
HETATM   13  H23 UNK   900      -2.084  -4.010   0.395  1.00  0.00     0.212 HD
ENDBRANCH  10  12
ENDBRANCH   1   5
BRANCH   2  14
HETATM   14  C6  UNK   900       0.481   3.313  -0.332  1.00  0.00     0.173 C 
BRANCH  14  15
HETATM   15  O1  UNK   900      -0.657   3.958   0.204  1.00  0.00    -0.400 OA
HETATM   16  H22 UNK   900      -0.608   4.893  -0.058  1.00  0.00     0.209 HD
ENDBRANCH  14  15
ENDBRANCH   2  14
BRANCH   3  17
HETATM   17  C5  UNK   900       1.831  -0.329  -0.514  1.00  0.00     0.013 C 
BRANCH  17  18
HETATM   18  C10 UNK   900       3.306   0.019  -0.315  1.00  0.00     0.078 C 
BRANCH  18  19
HETATM   19  C14 UNK   900       4.135  -1.168   0.144  1.00  0.00     0.123 C 
HETATM   20  O4  UNK   900       3.662  -2.291   0.304  1.00  0.00    -0.298 OA
HETATM   21  C15 UNK   900       5.595  -0.897   0.399  1.00  0.00     0.091 C 
ENDBRANCH  18  19
ENDBRANCH  17  18
ENDBRANCH   3  17
TORSDOF 7
