REMARK  5 active torsions:
REMARK  status: ('A' for Active; 'I' for Inactive)
REMARK    1  A    between atoms: O1_1  and  C2_6 
REMARK    2  A    between atoms: O2_2  and  C7_11 
REMARK    3  A    between atoms: O3_3  and  C9_13 
REMARK    4  A    between atoms: O4_4  and  C11_15 
REMARK    5  A    between atoms: C3_7  and  C11_15 
ROOT
HETATM    1  C1  UNK   900      -0.732  -0.486  -0.604  1.00  0.00     0.039 C 
HETATM    2  C2  UNK   900      -1.566   0.481   0.293  1.00  0.00     0.095 C 
HETATM    3  C3  UNK   900       0.480  -1.110   0.103  1.00  0.00     0.015 C 
HETATM    4  C4  UNK   900      -2.728   0.302  -0.783  1.00  0.00    -0.013 C 
HETATM    5  C5  UNK   900       1.383   0.056   0.693  1.00  0.00     0.002 C 
HETATM    6  C6  UNK   900      -2.078  -1.112  -1.055  1.00  0.00     0.020 C 
HETATM    7  C7  UNK   900      -0.663   1.700   0.454  1.00  0.00     0.154 C 
HETATM    8  C8  UNK   900       0.589   1.281   1.256  1.00  0.00     0.048 C 
HETATM    9  C9  UNK   900       2.249   0.469  -0.540  1.00  0.00     0.152 C 
HETATM   10  C10 UNK   900       1.391  -1.673  -0.967  1.00  0.00    -0.015 C 
HETATM   11  C12 UNK   900      -2.720   1.277  -1.964  1.00  0.00     0.018 C 
HETATM   12  C13 UNK   900      -4.146   0.191  -0.217  1.00  0.00     0.018 C 
HETATM   13  C14 UNK   900       2.303  -0.443   1.842  1.00  0.00     0.019 C 
HETATM   14  C15 UNK   900       2.362  -0.814  -1.305  1.00  0.00     0.002 C 
ENDROOT
BRANCH   3  15
HETATM   15  C11 UNK   900       0.088  -2.211   1.088  1.00  0.00     0.178 C 
BRANCH  15  16
HETATM   16  O4  UNK   900      -0.596  -3.226   0.378  1.00  0.00    -0.400 OA
HETATM   17  H23 UNK   900      -0.830  -3.919   1.018  1.00  0.00     0.209 HD
ENDBRANCH  15  16
ENDBRANCH   3  15
BRANCH   2  18
HETATM   18  O1  UNK   900      -1.937  -0.010   1.607  1.00  0.00    -0.386 OA
HETATM   19  H21 UNK   900      -2.353  -0.877   1.476  1.00  0.00     0.210 HD
ENDBRANCH   2  18
BRANCH   9  20
HETATM   20  O3  UNK   900       3.525   0.962  -0.170  1.00  0.00    -0.386 OA
HETATM   21  C16 UNK   900       4.163   1.636  -1.249  1.00  0.00     0.202 C 
ENDBRANCH   9  20
BRANCH   7  22
HETATM   22  O2  UNK   900      -1.367   2.731   1.140  1.00  0.00    -0.392 OA
HETATM   23  H22 UNK   900      -0.750   3.471   1.265  1.00  0.00     0.210 HD
ENDBRANCH   7  22
TORSDOF 5
