REMARK  6 active torsions:
REMARK  status: ('A' for Active; 'I' for Inactive)
REMARK    1  A    between atoms: O1_1  and  C2_11 
REMARK    2  A    between atoms: N2_6  and  C10_19 
REMARK    3  A    between atoms: C1_10  and  C2_11 
REMARK    4  A    between atoms: C2_11  and  C3_12 
REMARK    5  A    between atoms: C3_12  and  C5_14 
REMARK    6  A    between atoms: C4_13  and  C7_16 
ROOT
HETATM    1  C2  UNK   900      -1.259   0.205  -1.788  1.00  0.00     0.105 C 
HETATM    2  C8  UNK   900      -0.695   0.701  -3.123  1.00  0.00     0.050 C 
ENDROOT
BRANCH   1   3
HETATM    3  O1  UNK   900      -1.828  -1.088  -2.004  1.00  0.00    -0.386 OA
HETATM    4  H11 UNK   900      -1.255  -1.587  -2.611  1.00  0.00     0.210 HD
ENDBRANCH   1   3
BRANCH   1   5
HETATM    5  C1  UNK   900      -2.388   1.131  -1.328  1.00  0.00     0.363 C 
HETATM    6  N1  UNK   900      -1.881   2.490  -1.119  1.00  0.00     0.124 N 
HETATM    7  C4  UNK   900      -1.499   2.572   0.287  1.00  0.00     0.318 C 
HETATM    8  H5  UNK   900      -2.664   3.125  -1.283  1.00  0.00     0.319 HD
HETATM    9  C6  UNK   900      -2.435   1.595   0.969  1.00  0.00     0.260 C 
HETATM   10  O2  UNK   900      -2.639   1.593   2.174  1.00  0.00    -0.271 OA
HETATM   11  N2  UNK   900      -2.936   0.754  -0.039  1.00  0.00    -0.282 N 
BRANCH   7  12
HETATM   12  C7  UNK   900      -1.652   3.988   0.812  1.00  0.00     0.020 C 
HETATM   13  C13 UNK   900      -0.932   4.153   2.152  1.00  0.00     0.012 C 
HETATM   14  C14 UNK   900      -1.124   5.004  -0.203  1.00  0.00     0.012 C 
ENDBRANCH   7  12
BRANCH  11  15
HETATM   15  C10 UNK   900      -3.861  -0.324   0.134  1.00  0.00     0.039 A 
HETATM   16  C16 UNK   900      -3.888  -1.034   1.334  1.00  0.00     0.030 A 
HETATM   17  C21 UNK   900      -4.790  -2.085   1.503  1.00  0.00     0.002 A 
HETATM   18  C24 UNK   900      -5.665  -2.425   0.471  1.00  0.00     0.000 A 
HETATM   19  C22 UNK   900      -5.638  -1.715  -0.729  1.00  0.00     0.002 A 
HETATM   20  C17 UNK   900      -4.736  -0.664  -0.898  1.00  0.00     0.030 A 
ENDBRANCH  11  15
ENDBRANCH   1   5
BRANCH   1  21
HETATM   21  C3  UNK   900      -0.128   0.098  -0.746  1.00  0.00     0.077 C 
BRANCH  21  22
HETATM   22  C5  UNK   900       0.762  -1.131  -0.904  1.00  0.00     0.189 C 
HETATM   23  N3  UNK   900       2.108  -0.930  -0.350  1.00  0.00    -0.286 N 
HETATM   24  C11 UNK   900       2.414  -1.332   0.945  1.00  0.00     0.133 A 
HETATM   25  C15 UNK   900       3.046  -0.248  -1.141  1.00  0.00     0.262 A 
HETATM   26  N5  UNK   900       3.555  -1.130   1.526  1.00  0.00    -0.232 NA
HETATM   27  C12 UNK   900       1.333  -2.052   1.725  1.00  0.00     0.150 C 
HETATM   28  C20 UNK   900       4.560  -0.475   0.803  1.00  0.00     0.074 A 
HETATM   29  C19 UNK   900       4.363  -0.027  -0.507  1.00  0.00     0.061 A 
HETATM   30  C25 UNK   900       5.803  -0.261   1.409  1.00  0.00     0.032 A 
HETATM   31  C23 UNK   900       5.387   0.624  -1.203  1.00  0.00     0.019 A 
HETATM   32  C26 UNK   900       6.620   0.828  -0.586  1.00  0.00     0.001 A 
HETATM   33  C27 UNK   900       6.828   0.387   0.719  1.00  0.00     0.002 A 
HETATM   34  N4  UNK   900       0.563  -2.868   0.815  1.00  0.00    -0.348 N 
HETATM   35  C18 UNK   900       0.478  -1.140   2.588  1.00  0.00     0.040 C 
HETATM   36  C9  UNK   900       0.109  -2.410  -0.401  1.00  0.00     0.241 C 
HETATM   37  H19 UNK   900       0.153  -3.723   1.178  1.00  0.00     0.163 HD
HETATM   38  O3  UNK   900      -0.808  -2.951  -1.019  1.00  0.00    -0.271 OA
HETATM   39  O4  UNK   900       2.847   0.170  -2.278  1.00  0.00    -0.267 OA
ENDBRANCH  21  22
ENDBRANCH   1  21
TORSDOF 6
