REMARK  3 active torsions:
REMARK  status: ('A' for Active; 'I' for Inactive)
REMARK    1  A    between atoms: O3_3  and  C5_11 
REMARK    2  A    between atoms: O4_4  and  C8_14 
REMARK    3  A    between atoms: O5_5  and  C10_16 
ROOT
HETATM    1  O1  UNK   900      -1.866   0.118  -1.025  1.00  0.00    -0.350 OA
HETATM    2  O2  UNK   900      -1.411   0.093   1.341  1.00  0.00    -0.350 OA
HETATM    3  O6  UNK   900       2.312   2.082   1.262  1.00  0.00    -0.289 OA
HETATM    4  C1  UNK   900      -1.682  -0.675   0.160  1.00  0.00     0.170 C 
HETATM    5  C2  UNK   900      -0.488  -1.623  -0.083  1.00  0.00     0.103 C 
HETATM    6  C3  UNK   900      -2.944  -1.531   0.405  1.00  0.00     0.100 C 
HETATM    7  C4  UNK   900       0.843  -0.921   0.026  1.00  0.00    -0.060 C 
HETATM    8  C5  UNK   900      -4.226  -0.699   0.418  1.00  0.00     0.125 C 
HETATM    9  C6  UNK   900       2.026  -1.660  -0.536  1.00  0.00     0.070 C 
HETATM   10  C7  UNK   900       0.919   0.286   0.611  1.00  0.00     0.017 C 
HETATM   11  C8  UNK   900       3.406   0.424  -0.115  1.00  0.00     0.145 C 
HETATM   12  C9  UNK   900      -2.995   0.995  -0.974  1.00  0.00     0.123 C 
HETATM   13  C10 UNK   900       3.359  -1.105  -0.031  1.00  0.00     0.164 C 
HETATM   14  C11 UNK   900      -4.289   0.195  -0.817  1.00  0.00     0.063 C 
HETATM   15  C12 UNK   900      -0.276   0.957   1.222  1.00  0.00     0.214 C 
HETATM   16  C13 UNK   900       2.227   1.013   0.656  1.00  0.00     0.194 C 
HETATM   17  C14 UNK   900       4.736   0.986   0.387  1.00  0.00     0.057 C 
HETATM   18  C15 UNK   900      -3.006   1.802  -2.266  1.00  0.00     0.040 C 
ENDROOT
BRANCH   8  19
HETATM   19  O3  UNK   900      -4.262   0.097   1.599  1.00  0.00    -0.395 OA
HETATM   20  H20 UNK   900      -5.087   0.612   1.581  1.00  0.00     0.210 HD
ENDBRANCH   8  19
BRANCH  13  21
HETATM   21  O5  UNK   900       4.418  -1.690  -0.784  1.00  0.00    -0.392 OA
HETATM   22  H22 UNK   900       4.351  -2.655  -0.684  1.00  0.00     0.210 HD
ENDBRANCH  13  21
BRANCH  11  23
HETATM   23  O4  UNK   900       3.200   0.859  -1.457  1.00  0.00    -0.379 OA
HETATM   24  H21 UNK   900       3.316   1.824  -1.487  1.00  0.00     0.211 HD
ENDBRANCH  11  23
TORSDOF 3
