REMARK  2 active torsions:
REMARK  status: ('A' for Active; 'I' for Inactive)
REMARK    1  A    between atoms: O2_2  and  C8_12 
REMARK    2  A    between atoms: O3_3  and  C13_17 
ROOT
HETATM    1  O1  UNK   900       0.374  -1.604   0.034  1.00  0.00    -0.309 OA
HETATM    2  O4  UNK   900      -4.314  -1.881  -0.049  1.00  0.00    -0.285 OA
HETATM    3  C1  UNK   900      -0.990   0.475   0.014  1.00  0.00     0.008 A 
HETATM    4  C2  UNK   900       1.448   0.560  -0.001  1.00  0.00     0.005 A 
HETATM    5  C3  UNK   900      -0.877  -0.989   0.018  1.00  0.00     0.090 A 
HETATM    6  C4  UNK   900       0.141   1.208   0.001  1.00  0.00     0.029 A 
HETATM    7  C5  UNK   900       1.507  -0.832   0.017  1.00  0.00     0.089 A 
HETATM    8  C6  UNK   900      -2.334   1.108   0.021  1.00  0.00    -0.012 A 
HETATM    9  C7  UNK   900       2.636   1.298  -0.020  1.00  0.00    -0.046 A 
HETATM   10  C8  UNK   900      -3.438   0.324  -0.007  1.00  0.00     0.122 A 
HETATM   11  C9  UNK   900      -1.968  -1.762   0.002  1.00  0.00     0.095 A 
HETATM   12  C10 UNK   900       2.736  -1.493   0.018  1.00  0.00     0.074 A 
HETATM   13  C11 UNK   900       3.868   0.640  -0.020  1.00  0.00     0.044 A 
HETATM   14  C12 UNK   900      -3.318  -1.164  -0.021  1.00  0.00     0.208 A 
HETATM   15  C13 UNK   900       3.918  -0.754  -0.001  1.00  0.00     0.068 A 
HETATM   16  C14 UNK   900      -2.441   2.612   0.050  1.00  0.00     0.052 C 
HETATM   17  C15 UNK   900       2.648   2.793  -0.040  1.00  0.00     0.049 C 
ENDROOT
BRANCH  10  18
HETATM   18  O2  UNK   900      -4.713   0.854  -0.013  1.00  0.00    -0.356 OA
HETATM   19  H11 UNK   900      -5.339   0.109  -0.030  1.00  0.00     0.218 HD
ENDBRANCH  10  18
BRANCH  15  20
HETATM   20  O3  UNK   900       5.120  -1.392  -0.001  1.00  0.00    -0.361 OA
HETATM   21  H12 UNK   900       5.830  -0.728  -0.016  1.00  0.00     0.217 HD
ENDBRANCH  15  20
TORSDOF 2
