REMARK  1 active torsions:
REMARK  status: ('A' for Active; 'I' for Inactive)
REMARK    1  A    between atoms: O1_1  and  C9_10 
ROOT
HETATM    1  C1  UNK   900      -0.231   0.460  -0.234  1.00  0.00    -0.005 C 
HETATM    2  C2  UNK   900      -0.610  -0.904   0.436  1.00  0.00    -0.002 C 
HETATM    3  C3  UNK   900       1.271   0.383  -0.647  1.00  0.00     0.007 C 
HETATM    4  C4  UNK   900       1.849  -0.902  -0.014  1.00  0.00    -0.042 C 
HETATM    5  C5  UNK   900       0.602  -1.812   0.077  1.00  0.00     0.022 C 
HETATM    6  C6  UNK   900      -0.334   1.756   0.597  1.00  0.00    -0.005 C 
HETATM    7  C7  UNK   900       1.895   1.737  -0.279  1.00  0.00     0.007 C 
HETATM    8  C8  UNK   900       0.707   2.669  -0.059  1.00  0.00     0.006 C 
HETATM    9  C9  UNK   900      -1.892  -1.395  -0.310  1.00  0.00     0.150 C 
HETATM   10  C10 UNK   900      -1.077   0.462  -1.489  1.00  0.00    -0.017 C 
HETATM   11  C11 UNK   900      -0.838  -0.890   1.955  1.00  0.00     0.019 C 
HETATM   12  C12 UNK   900      -1.951  -0.544  -1.530  1.00  0.00     0.002 C 
HETATM   13  C13 UNK   900       2.519  -0.710   1.356  1.00  0.00     0.015 C 
HETATM   14  C14 UNK   900       2.894  -1.541  -0.947  1.00  0.00     0.015 C 
HETATM   15  C15 UNK   900      -1.708   2.410   0.674  1.00  0.00     0.011 C 
ENDROOT
BRANCH   9  16
HETATM   16  O1  UNK   900      -3.096  -1.179   0.413  1.00  0.00    -0.391 OA
HETATM   17  H24 UNK   900      -3.830  -1.530  -0.121  1.00  0.00     0.210 HD
ENDBRANCH   9  16
TORSDOF 1
