REMARK  4 active torsions:
REMARK  status: ('A' for Active; 'I' for Inactive)
REMARK    1  A    between atoms: O1_1  and  C3_6 
REMARK    2  A    between atoms: O3_3  and  C13_16 
REMARK    3  A    between atoms: C4_7  and  C12_15 
REMARK    4  A    between atoms: C10_13  and  C13_16 
ROOT
HETATM    1  O2  UNK   900       1.814  -2.722  -0.151  1.00  0.00    -0.292 OA
HETATM    2  C1  UNK   900       0.308  -0.804  -0.369  1.00  0.00     0.054 C 
HETATM    3  C2  UNK   900       0.657   0.569   0.245  1.00  0.00     0.036 C 
HETATM    4  C3  UNK   900      -0.852  -1.478   0.369  1.00  0.00     0.138 C 
HETATM    5  C4  UNK   900       2.160   0.652   0.085  1.00  0.00    -0.071 C 
HETATM    6  C5  UNK   900      -0.168   1.723  -0.307  1.00  0.00     0.037 C 
HETATM    7  C6  UNK   900       1.638  -1.514  -0.171  1.00  0.00     0.161 C 
HETATM    8  C7  UNK   900       0.079  -0.800  -1.897  1.00  0.00     0.027 C 
HETATM    9  C8  UNK   900      -2.238  -0.870   0.097  1.00  0.00     0.069 C 
HETATM   10  C9  UNK   900       2.742  -0.541  -0.086  1.00  0.00     0.054 C 
HETATM   11  C10 UNK   900      -2.491   0.627   0.169  1.00  0.00    -0.058 C 
HETATM   12  C11 UNK   900      -1.643   1.658  -0.016  1.00  0.00    -0.021 C 
ENDROOT
BRANCH  11  13
HETATM   13  C13 UNK   900      -3.952   0.946   0.417  1.00  0.00     0.198 C 
BRANCH  13  14
HETATM   14  O3  UNK   900      -4.734   0.349  -0.593  1.00  0.00    -0.397 OA
HETATM   15  H20 UNK   900      -5.665   0.546  -0.393  1.00  0.00     0.209 HD
ENDBRANCH  13  14
ENDBRANCH  11  13
BRANCH   4  16
HETATM   16  O1  UNK   900      -0.616  -1.476   1.780  1.00  0.00    -0.394 OA
HETATM   17  H14 UNK   900      -1.325  -1.991   2.201  1.00  0.00     0.210 HD
ENDBRANCH   4  16
BRANCH   5  18
HETATM   18  C12 UNK   900       2.895   1.938   0.242  1.00  0.00     0.030 C 
HETATM   19  C14 UNK   900       4.401   1.743   0.187  1.00  0.00     0.010 C 
ENDBRANCH   5  18
TORSDOF 4
