REMARK  6 active torsions:
REMARK  status: ('A' for Active; 'I' for Inactive)
REMARK    1  A    between atoms: O1_1  and  C4_8 
REMARK    2  A    between atoms: O2_2  and  C7_11 
REMARK    3  A    between atoms: O3_3  and  C11_15 
REMARK    4  A    between atoms: O4_4  and  C14_18 
REMARK    5  A    between atoms: C8_12  and  C11_15 
REMARK    6  A    between atoms: C11_15  and  C14_18 
ROOT
HETATM    1  C1  UNK   900      -0.987   0.526   0.808  1.00  0.00    -0.001 C 
HETATM    2  C2  UNK   900      -1.869  -0.654   0.343  1.00  0.00     0.026 C 
HETATM    3  C3  UNK   900      -1.989   1.696   0.664  1.00  0.00     0.015 C 
HETATM    4  C4  UNK   900      -1.213  -2.035   0.108  1.00  0.00     0.058 C 
HETATM    5  C5  UNK   900       0.327   0.735   0.034  1.00  0.00     0.013 C 
HETATM    6  C6  UNK   900      -2.694  -0.090  -0.835  1.00  0.00     0.040 C 
HETATM    7  C7  UNK   900      -2.661   1.434  -0.685  1.00  0.00     0.122 C 
HETATM    8  C8  UNK   900       1.371  -0.349   0.339  1.00  0.00     0.022 C 
HETATM    9  C9  UNK   900      -0.124  -2.049  -0.978  1.00  0.00     0.038 C 
HETATM   10  C10 UNK   900       1.272  -1.574  -0.576  1.00  0.00     0.010 C 
HETATM   11  C12 UNK   900      -1.419   3.104   0.776  1.00  0.00     0.013 C 
HETATM   12  C13 UNK   900      -2.296  -3.065  -0.267  1.00  0.00     0.046 C 
ENDROOT
BRANCH   8  13
HETATM   13  C11 UNK   900       2.789   0.232   0.241  1.00  0.00     0.079 C 
HETATM   14  C15 UNK   900       3.820  -0.837   0.598  1.00  0.00     0.048 C 
BRANCH  13  15
HETATM   15  O3  UNK   900       2.903   1.277   1.207  1.00  0.00    -0.388 OA
HETATM   16  H27 UNK   900       3.779   1.687   1.102  1.00  0.00     0.210 HD
ENDBRANCH  13  15
BRANCH  13  17
HETATM   17  C14 UNK   900       3.023   0.818  -1.155  1.00  0.00     0.201 C 
BRANCH  17  18
HETATM   18  O4  UNK   900       4.346   1.333  -1.257  1.00  0.00    -0.398 OA
HETATM   19  H28 UNK   900       4.441   1.707  -2.150  1.00  0.00     0.209 HD
ENDBRANCH  17  18
ENDBRANCH  13  17
ENDBRANCH   8  13
BRANCH   4  20
HETATM   20  O1  UNK   900      -0.633  -2.487   1.337  1.00  0.00    -0.390 OA
HETATM   21  H20 UNK   900      -1.332  -2.506   2.013  1.00  0.00     0.210 HD
ENDBRANCH   4  20
BRANCH   7  22
HETATM   22  O2  UNK   900      -3.968   1.984  -0.702  1.00  0.00    -0.395 OA
HETATM   23  H21 UNK   900      -4.374   1.744  -1.552  1.00  0.00     0.210 HD
ENDBRANCH   7  22
TORSDOF 6
