REMARK  3 active torsions:
REMARK  status: ('A' for Active; 'I' for Inactive)
REMARK    1  A    between atoms: O3_3  and  C8_13 
REMARK    2  A    between atoms: O5_5  and  C12_17 
REMARK    3  A    between atoms: C3_8  and  C8_13 
ROOT
HETATM    1  O1  UNK   900      -0.260   1.813  -0.065  1.00  0.00    -0.344 OA
HETATM    2  O2  UNK   900       0.182  -2.207   0.468  1.00  0.00    -0.292 OA
HETATM    3  C1  UNK   900       1.218  -0.053   0.641  1.00  0.00     0.104 C 
HETATM    4  C2  UNK   900       0.782   1.401   0.824  1.00  0.00     0.141 C 
HETATM    5  C3  UNK   900       2.169  -0.049  -0.568  1.00  0.00     0.098 C 
HETATM    6  C4  UNK   900       2.041   2.166   0.430  1.00  0.00     0.034 C 
HETATM    7  C5  UNK   900       2.526   1.424  -0.814  1.00  0.00     0.019 C 
HETATM    8  C6  UNK   900       0.049  -0.988   0.447  1.00  0.00     0.170 C 
HETATM    9  C7  UNK   900      -1.269  -0.377   0.202  1.00  0.00     0.046 A 
HETATM   10  C9  UNK   900      -1.350   0.991  -0.046  1.00  0.00     0.083 A 
HETATM   11  C10 UNK   900      -2.421  -1.169   0.171  1.00  0.00     0.054 A 
HETATM   12  C11 UNK   900      -2.582   1.569  -0.355  1.00  0.00     0.040 A 
HETATM   13  C12 UNK   900      -3.654  -0.583  -0.116  1.00  0.00     0.066 A 
HETATM   14  C13 UNK   900      -3.734   0.783  -0.382  1.00  0.00     0.039 A 
ENDROOT
BRANCH   5  15
HETATM   15  C8  UNK   900       3.407  -0.843  -0.272  1.00  0.00     0.144 C 
HETATM   16  O4  UNK   900       4.411  -0.404   0.268  1.00  0.00    -0.650 OA
BRANCH  15  17
HETATM   17  O3  UNK   900       3.264  -2.125  -0.689  1.00  0.00    -0.776 OA
HETATM   18  H10 UNK   900       4.064  -2.662  -0.505  1.00  0.00     0.167 HD
ENDBRANCH  15  17
ENDBRANCH   5  15
BRANCH  13  19
HETATM   19  O5  UNK   900      -4.779  -1.348  -0.145  1.00  0.00    -0.361 OA
HETATM   20  H12 UNK   900      -4.541  -2.269   0.060  1.00  0.00     0.217 HD
ENDBRANCH  13  19
TORSDOF 3
