REMARK  5 active torsions:
REMARK  status: ('A' for Active; 'I' for Inactive)
REMARK    1  A    between atoms: O2_2  and  C4_10 
REMARK    2  A    between atoms: O2_2  and  C6_12 
REMARK    3  A    between atoms: O3_3  and  C3_9 
REMARK    4  A    between atoms: O4_4  and  C1_7 
REMARK    5  A    between atoms: O5_5  and  C2_8 
ROOT
HETATM    1  O1  UNK   900       2.277  -1.658   0.250  1.00  0.00    -0.356 OA
HETATM    2  C1  UNK   900       2.709   1.187  -0.002  1.00  0.00     0.182 C 
HETATM    3  C2  UNK   900       1.812   0.407  -0.972  1.00  0.00     0.205 C 
HETATM    4  C3  UNK   900       3.702   0.269   0.715  1.00  0.00     0.176 C 
HETATM    5  C4  UNK   900       1.242  -0.867  -0.341  1.00  0.00     0.297 C 
HETATM    6  C5  UNK   900       3.014  -0.976   1.266  1.00  0.00     0.205 C 
ENDROOT
BRANCH   5   7
HETATM    7  O2  UNK   900       0.220  -0.532   0.592  1.00  0.00    -0.315 OA
BRANCH   7   8
HETATM    8  C6  UNK   900      -1.036  -1.001   0.319  1.00  0.00     0.101 A 
HETATM    9  C7  UNK   900      -2.091  -0.110   0.142  1.00  0.00     0.100 A 
HETATM   10  N1  UNK   900      -1.878   1.216   0.240  1.00  0.00    -0.250 NA
HETATM   11  C9  UNK   900      -3.368  -0.640  -0.138  1.00  0.00    -0.004 A 
HETATM   12  C14 UNK   900      -2.930   2.048   0.061  1.00  0.00     0.031 A 
HETATM   13  C15 UNK   900      -4.214   1.623  -0.216  1.00  0.00     0.027 A 
HETATM   14  C16 UNK   900      -2.652   3.509   0.178  1.00  0.00     0.070 C 
HETATM   15  C13 UNK   900      -4.430   0.257  -0.316  1.00  0.00     0.016 A 
HETATM   16  C11 UNK   900      -3.554  -2.030  -0.232  1.00  0.00     0.014 A 
HETATM   17  C12 UNK   900      -2.481  -2.898  -0.051  1.00  0.00     0.004 A 
HETATM   18  C10 UNK   900      -1.221  -2.383   0.225  1.00  0.00     0.039 A 
ENDBRANCH   7   8
ENDBRANCH   5   7
BRANCH   3  19
HETATM   19  O5  UNK   900       2.566   0.029  -2.123  1.00  0.00    -0.388 OA
HETATM   20  H8  UNK   900       1.953  -0.385  -2.754  1.00  0.00     0.210 HD
ENDBRANCH   3  19
BRANCH   2  21
HETATM   21  O4  UNK   900       1.905   1.829   0.985  1.00  0.00    -0.390 OA
HETATM   22  H7  UNK   900       2.495   2.360   1.546  1.00  0.00     0.210 HD
ENDBRANCH   2  21
BRANCH   4  23
HETATM   23  O3  UNK   900       4.722  -0.151  -0.189  1.00  0.00    -0.386 OA
HETATM   24  C8  UNK   900       5.689   0.870  -0.392  1.00  0.00     0.202 C 
ENDBRANCH   4  23
TORSDOF 5
