REMARK  4 active torsions:
REMARK  status: ('A' for Active; 'I' for Inactive)
REMARK    1  A    between atoms: O2_2  and  C1_7 
REMARK    2  A    between atoms: O3_3  and  C2_8 
REMARK    3  A    between atoms: O4_4  and  C8_14 
REMARK    4  A    between atoms: O6_6  and  C10_16 
ROOT
HETATM    1  O1  UNK   900      -2.054  -1.018   0.583  1.00  0.00    -0.277 OA
HETATM    2  O5  UNK   900      -0.581  -2.728   0.714  1.00  0.00    -0.259 OA
HETATM    3  C1  UNK   900      -2.336   0.316   0.096  1.00  0.00     0.199 C 
HETATM    4  C2  UNK   900      -1.320   1.295   0.697  1.00  0.00     0.214 C 
HETATM    5  C3  UNK   900       0.070   0.806   0.380  1.00  0.00    -0.003 A 
HETATM    6  C4  UNK   900       0.300  -0.574   0.291  1.00  0.00     0.082 A 
HETATM    7  C5  UNK   900      -3.766   0.652   0.524  1.00  0.00     0.082 C 
HETATM    8  C6  UNK   900       1.151   1.685   0.219  1.00  0.00     0.048 A 
HETATM    9  C7  UNK   900      -0.800  -1.537   0.534  1.00  0.00     0.299 C 
HETATM   10  C8  UNK   900       1.582  -1.065   0.017  1.00  0.00     0.091 A 
HETATM   11  C9  UNK   900       2.642  -0.177  -0.163  1.00  0.00     0.005 A 
HETATM   12  C10 UNK   900       2.428   1.195  -0.058  1.00  0.00     0.074 A 
HETATM   13  C11 UNK   900       4.014  -0.693  -0.463  1.00  0.00     0.054 C 
ENDROOT
BRANCH   3  14
HETATM   14  O2  UNK   900      -2.264   0.365  -1.332  1.00  0.00    -0.357 OA
HETATM   15  C12 UNK   900      -2.822  -0.802  -1.913  1.00  0.00     0.205 C 
ENDBRANCH   3  14
BRANCH   4  16
HETATM   16  O3  UNK   900      -1.534   2.607   0.189  1.00  0.00    -0.385 OA
HETATM   17  H6  UNK   900      -2.369   2.936   0.562  1.00  0.00     0.210 HD
ENDBRANCH   4  16
BRANCH  10  18
HETATM   18  O4  UNK   900       1.834  -2.401  -0.096  1.00  0.00    -0.359 OA
HETATM   19  H13 UNK   900       1.004  -2.900  -0.151  1.00  0.00     0.217 HD
ENDBRANCH  10  18
BRANCH  12  20
HETATM   20  O6  UNK   900       3.455   2.076  -0.219  1.00  0.00    -0.360 OA
HETATM   21  H14 UNK   900       3.118   2.982  -0.112  1.00  0.00     0.217 HD
ENDBRANCH  12  20
TORSDOF 4
