REMARK  7 active torsions:
REMARK  status: ('A' for Active; 'I' for Inactive)
REMARK    1  A    between atoms: O1_1  and  C1_6 
REMARK    2  A    between atoms: O2_2  and  C2_7 
REMARK    3  A    between atoms: O3_3  and  C4_9 
REMARK    4  A    between atoms: O4_4  and  C11_16 
REMARK    5  A    between atoms: O5_5  and  C14_19 
REMARK    6  A    between atoms: C8_13  and  C11_16 
REMARK    7  A    between atoms: C11_16  and  C14_19 
ROOT
HETATM    1  C1  UNK   900      -1.033   0.831   0.435  1.00  0.00     0.095 C 
HETATM    2  C2  UNK   900      -1.971  -0.353   0.069  1.00  0.00     0.119 C 
HETATM    3  C3  UNK   900      -1.953   2.046   0.125  1.00  0.00     0.019 C 
HETATM    4  C4  UNK   900      -1.369  -1.791   0.021  1.00  0.00     0.088 C 
HETATM    5  C5  UNK   900       0.310   0.880  -0.330  1.00  0.00     0.049 C 
HETATM    6  C6  UNK   900      -2.632   0.126  -1.244  1.00  0.00     0.044 C 
HETATM    7  C7  UNK   900      -2.679   1.658  -1.166  1.00  0.00     0.010 C 
HETATM    8  C8  UNK   900       1.311  -0.213   0.081  1.00  0.00     0.025 C 
HETATM    9  C9  UNK   900      -0.263  -1.989  -1.035  1.00  0.00     0.041 C 
HETATM   10  C10 UNK   900       1.151  -1.524  -0.692  1.00  0.00     0.011 C 
HETATM   11  C12 UNK   900      -1.289   3.415   0.030  1.00  0.00     0.013 C 
HETATM   12  C13 UNK   900      -2.465  -2.845  -0.249  1.00  0.00     0.049 C 
ENDROOT
BRANCH   8  13
HETATM   13  C11 UNK   900       2.751   0.292  -0.098  1.00  0.00     0.079 C 
HETATM   14  C15 UNK   900       3.011   0.628  -1.564  1.00  0.00     0.048 C 
BRANCH  13  15
HETATM   15  O4  UNK   900       2.887   1.501   0.650  1.00  0.00    -0.388 OA
HETATM   16  H27 UNK   900       2.724   1.296   1.587  1.00  0.00     0.210 HD
ENDBRANCH  13  15
BRANCH  13  17
HETATM   17  C14 UNK   900       3.742  -0.742   0.444  1.00  0.00     0.201 C 
BRANCH  17  18
HETATM   18  O5  UNK   900       5.076  -0.265   0.304  1.00  0.00    -0.398 OA
HETATM   19  H28 UNK   900       5.664  -0.947   0.671  1.00  0.00     0.209 HD
ENDBRANCH  17  18
ENDBRANCH  13  17
ENDBRANCH   8  13
BRANCH   1  20
HETATM   20  O1  UNK   900      -0.756   0.822   1.838  1.00  0.00    -0.386 OA
HETATM   21  H19 UNK   900      -0.233   1.614   2.045  1.00  0.00     0.210 HD
ENDBRANCH   1  20
BRANCH   2  22
HETATM   22  O2  UNK   900      -3.012  -0.362   1.077  1.00  0.00    -0.384 OA
HETATM   23  H20 UNK   900      -3.794  -0.808   0.712  1.00  0.00     0.210 HD
ENDBRANCH   2  22
BRANCH   4  24
HETATM   24  O3  UNK   900      -0.818  -2.114   1.304  1.00  0.00    -0.387 OA
HETATM   25  H21 UNK   900      -0.456  -3.016   1.261  1.00  0.00     0.210 HD
ENDBRANCH   4  24
TORSDOF 7
