REMARK  2 active torsions:
REMARK  status: ('A' for Active; 'I' for Inactive)
REMARK    1  A    between atoms: O1_1  and  C12_14 
REMARK    2  A    between atoms: C4_6  and  C12_14 
ROOT
HETATM    1  O2  UNK   900       0.189   3.214   0.175  1.00  0.00    -0.292 OA
HETATM    2  C1  UNK   900       0.869  -0.286  -0.187  1.00  0.00    -0.000 C 
HETATM    3  C2  UNK   900      -0.399  -1.058  -0.689  1.00  0.00     0.010 C 
HETATM    4  C3  UNK   900       0.346   0.844   0.744  1.00  0.00     0.033 C 
HETATM    5  C4  UNK   900      -1.644  -0.251  -0.249  1.00  0.00    -0.017 C 
HETATM    6  C5  UNK   900       1.772  -1.371   0.467  1.00  0.00    -0.005 C 
HETATM    7  C6  UNK   900      -1.146   0.552   0.970  1.00  0.00     0.030 C 
HETATM    8  C7  UNK   900      -0.241  -2.470  -0.113  1.00  0.00     0.007 C 
HETATM    9  C8  UNK   900       1.263  -2.685  -0.127  1.00  0.00     0.006 C 
HETATM   10  C9  UNK   900       1.512   0.470  -1.326  1.00  0.00    -0.011 C 
HETATM   11  C10 UNK   900       0.585   2.089  -0.094  1.00  0.00     0.158 C 
HETATM   12  C11 UNK   900       1.077   1.068   2.071  1.00  0.00     0.025 C 
HETATM   13  C13 UNK   900      -2.113   0.686  -1.383  1.00  0.00     0.018 C 
HETATM   14  C14 UNK   900       1.384   1.797  -1.291  1.00  0.00     0.048 C 
HETATM   15  C15 UNK   900       3.279  -1.214   0.304  1.00  0.00     0.011 C 
ENDROOT
BRANCH   5  16
HETATM   16  C12 UNK   900      -2.854  -1.120   0.131  1.00  0.00     0.173 C 
BRANCH  16  17
HETATM   17  O1  UNK   900      -3.878  -0.267   0.598  1.00  0.00    -0.400 OA
HETATM   18  H22 UNK   900      -4.639  -0.827   0.826  1.00  0.00     0.209 HD
ENDBRANCH  16  17
ENDBRANCH   5  16
TORSDOF 2
