REMARK  4 active torsions:
REMARK  status: ('A' for Active; 'I' for Inactive)
REMARK    1  A    between atoms: O2_2  and  C6_11 
REMARK    2  A    between atoms: O3_3  and  C10_15 
REMARK    3  A    between atoms: O4_4  and  C12_17 
REMARK    4  A    between atoms: C3_8  and  C4_9 
ROOT
HETATM    1  O1  UNK   900      -0.620   1.375  -0.023  1.00  0.00    -0.274 OA
HETATM    2  O5  UNK   900       1.084   2.871  -0.032  1.00  0.00    -0.259 OA
HETATM    3  C1  UNK   900       1.204  -0.740   0.003  1.00  0.00    -0.012 A 
HETATM    4  C2  UNK   900       1.666   0.579  -0.011  1.00  0.00     0.084 A 
HETATM    5  C3  UNK   900      -1.073   0.034  -0.014  1.00  0.00     0.093 A 
HETATM    6  C5  UNK   900      -0.227  -1.005   0.004  1.00  0.00     0.051 A 
HETATM    7  C6  UNK   900       3.041   0.844  -0.012  1.00  0.00     0.091 A 
HETATM    8  C7  UNK   900       3.952  -0.211   0.001  1.00  0.00     0.005 A 
HETATM    9  C8  UNK   900       2.126  -1.793   0.016  1.00  0.00     0.049 A 
HETATM   10  C10 UNK   900       3.496  -1.528   0.014  1.00  0.00     0.075 A 
HETATM   11  C11 UNK   900       0.706   1.706  -0.023  1.00  0.00     0.302 A 
HETATM   12  C13 UNK   900       5.423   0.064  -0.002  1.00  0.00     0.054 C 
ENDROOT
BRANCH   5  13
HETATM   13  C4  UNK   900      -2.541  -0.114  -0.006  1.00  0.00     0.037 A 
HETATM   14  C9  UNK   900      -3.236  -0.159   1.202  1.00  0.00    -0.046 A 
HETATM   15  C14 UNK   900      -4.624  -0.298   1.204  1.00  0.00     0.008 A 
HETATM   16  C15 UNK   900      -2.530  -0.064   2.517  1.00  0.00     0.049 C 
HETATM   17  C17 UNK   900      -5.317  -0.391  -0.004  1.00  0.00     0.003 A 
HETATM   18  C16 UNK   900      -4.622  -0.346  -1.212  1.00  0.00     0.037 A 
HETATM   19  C12 UNK   900      -3.234  -0.207  -1.214  1.00  0.00     0.079 A 
BRANCH  19  20
HETATM   20  O4  UNK   900      -2.581  -0.165  -2.411  1.00  0.00    -0.360 OA
HETATM   21  H14 UNK   900      -3.230  -0.244  -3.131  1.00  0.00     0.217 HD
ENDBRANCH  19  20
ENDBRANCH   5  13
BRANCH   7  22
HETATM   22  O2  UNK   900       3.531   2.118  -0.025  1.00  0.00    -0.359 OA
HETATM   23  H12 UNK   900       2.814   2.769  -0.046  1.00  0.00     0.217 HD
ENDBRANCH   7  22
BRANCH  10  24
HETATM   24  O3  UNK   900       4.374  -2.571   0.028  1.00  0.00    -0.360 OA
HETATM   25  H13 UNK   900       3.876  -3.406   0.037  1.00  0.00     0.217 HD
ENDBRANCH  10  24
TORSDOF 4
