REMARK  8 active torsions:
REMARK  status: ('A' for Active; 'I' for Inactive)
REMARK    1  A    between atoms: O4_4  and  C13_20 
REMARK    2  A    between atoms: O7_7  and  C26_33 
REMARK    3  A    between atoms: C1_8  and  C8_15 
REMARK    4  A    between atoms: C3_10  and  C11_18 
REMARK    5  A    between atoms: C8_15  and  C12_19 
REMARK    6  A    between atoms: C12_19  and  C15_22 
REMARK    7  A    between atoms: C15_22  and  C17_24 
REMARK    8  A    between atoms: C18_25  and  C21_28 
ROOT
HETATM    1  O1  UNK   900       1.622   2.442  -1.554  1.00  0.00    -0.379 OA
HETATM    2  O2  UNK   900       5.353   1.455   0.276  1.00  0.00    -0.297 OA
HETATM    3  C1  UNK   900       3.166   0.769  -0.532  1.00  0.00     0.043 C 
HETATM    4  C2  UNK   900       1.311   2.780  -0.196  1.00  0.00     0.065 C 
HETATM    5  C3  UNK   900       0.929   1.481   0.570  1.00  0.00     0.063 C 
HETATM    6  C4  UNK   900       1.952   0.347   0.312  1.00  0.00     0.032 C 
HETATM    7  C5  UNK   900       2.740   1.585  -1.759  1.00  0.00     0.186 C 
HETATM    8  C6  UNK   900       2.496   3.549   0.454  1.00  0.00     0.046 C 
HETATM    9  C7  UNK   900       4.132   1.628   0.297  1.00  0.00     0.137 C 
HETATM   10  C9  UNK   900       3.545   2.708   1.169  1.00  0.00     0.082 C 
HETATM   11  C10 UNK   900       0.147   3.785  -0.302  1.00  0.00     0.047 C 
ENDROOT
BRANCH   5  12
HETATM   12  C11 UNK   900      -0.457   0.957   0.278  1.00  0.00     0.058 A 
HETATM   13  C13 UNK   900      -0.919   0.559  -0.922  1.00  0.00     0.081 A 
HETATM   14  C16 UNK   900      -2.262   0.076  -1.088  1.00  0.00     0.075 A 
HETATM   15  C18 UNK   900      -3.082   0.023  -0.032  1.00  0.00     0.092 A 
HETATM   16  O3  UNK   900      -2.642   0.425   1.250  1.00  0.00    -0.274 OA
HETATM   17  C14 UNK   900      -1.372   0.889   1.457  1.00  0.00     0.297 A 
HETATM   18  O5  UNK   900      -1.000   1.236   2.575  1.00  0.00    -0.259 OA
BRANCH  13  19
HETATM   19  O4  UNK   900      -0.198   0.561  -2.093  1.00  0.00    -0.360 OA
HETATM   20  H19 UNK   900      -0.743   0.225  -2.824  1.00  0.00     0.217 HD
ENDBRANCH  13  19
BRANCH  15  21
HETATM   21  C21 UNK   900      -4.474  -0.460  -0.085  1.00  0.00    -0.002 A 
HETATM   22  C22 UNK   900      -4.840  -1.433  -1.016  1.00  0.00     0.017 A 
HETATM   23  C24 UNK   900      -6.157  -1.889  -1.067  1.00  0.00     0.037 A 
HETATM   24  C26 UNK   900      -7.109  -1.372  -0.188  1.00  0.00     0.068 A 
HETATM   25  C25 UNK   900      -6.743  -0.399   0.743  1.00  0.00     0.037 A 
HETATM   26  C23 UNK   900      -5.426   0.057   0.794  1.00  0.00     0.017 A 
BRANCH  24  27
HETATM   27  O7  UNK   900      -8.394  -1.816  -0.239  1.00  0.00    -0.356 OA
HETATM   28  C27 UNK   900      -9.316  -1.245   0.689  1.00  0.00     0.210 C 
ENDBRANCH  24  27
ENDBRANCH  15  21
ENDBRANCH   5  12
BRANCH   3  29
HETATM   29  C8  UNK   900       3.924  -0.491  -0.995  1.00  0.00     0.027 C 
BRANCH  29  30
HETATM   30  C12 UNK   900       4.384  -1.314   0.196  1.00  0.00     0.080 C 
BRANCH  30  31
HETATM   31  C15 UNK   900       5.130  -2.568  -0.236  1.00  0.00     0.130 C 
HETATM   32  O6  UNK   900       5.361  -2.817  -1.419  1.00  0.00    -0.298 OA
BRANCH  31  33
HETATM   33  C17 UNK   900       5.606  -3.489   0.886  1.00  0.00     0.047 C 
HETATM   34  C19 UNK   900       5.594  -4.948   0.436  1.00  0.00     0.017 C 
HETATM   35  C20 UNK   900       6.999  -3.070   1.340  1.00  0.00     0.017 C 
ENDBRANCH  31  33
ENDBRANCH  30  31
ENDBRANCH  29  30
ENDBRANCH   3  29
TORSDOF 8
