REMARK  9 active torsions:
REMARK  status: ('A' for Active; 'I' for Inactive)
REMARK    1  A    between atoms: O2_2  and  C1_13 
REMARK    2  A    between atoms: O3_3  and  C3_15 
REMARK    3  A    between atoms: O4_4  and  C5_17 
REMARK    4  A    between atoms: O6_6  and  C13_25 
REMARK    5  A    between atoms: N1_8  and  C2_14 
REMARK    6  A    between atoms: N5_12  and  C10_22 
REMARK    7  A    between atoms: N5_12  and  C11_23 
REMARK    8  A    between atoms: C4_16  and  C5_17 
REMARK    9  A    between atoms: C11_23  and  C13_25 
ROOT
HETATM    1  O5  UNK   900      -1.370  -4.560   0.622  1.00  0.00    -0.265 OA
HETATM    2  N1  UNK   900       1.276  -0.975  -0.128  1.00  0.00    -0.293 N 
HETATM    3  N2  UNK   900       1.232  -3.139   0.435  1.00  0.00    -0.234 NA
HETATM    4  N3  UNK   900      -1.089  -0.541  -0.411  1.00  0.00    -0.044 NA
HETATM    5  N4  UNK   900      -2.355  -2.529   0.020  1.00  0.00    -0.152 N 
HETATM    6  C6  UNK   900      -0.038  -1.342  -0.126  1.00  0.00     0.186 A 
HETATM    7  C7  UNK   900       2.001  -2.090   0.216  1.00  0.00     0.214 A 
HETATM    8  C8  UNK   900      -0.031  -2.671   0.222  1.00  0.00     0.173 A 
HETATM    9  C9  UNK   900      -1.279  -3.377   0.319  1.00  0.00     0.292 A 
HETATM   10  C10 UNK   900      -2.245  -1.163  -0.331  1.00  0.00     0.706 A 
HETATM   11  H11 UNK   900      -3.288  -2.930   0.058  1.00  0.00     0.187 HD
ENDROOT
BRANCH   2  12
HETATM   12  C2  UNK   900       1.843   0.389  -0.445  1.00  0.00     0.262 C 
HETATM   13  O1  UNK   900       3.147   0.290  -1.054  1.00  0.00    -0.353 OA
HETATM   14  C4  UNK   900       4.013   1.301  -0.492  1.00  0.00     0.179 C 
HETATM   15  C3  UNK   900       3.124   2.208   0.350  1.00  0.00     0.182 C 
HETATM   16  C1  UNK   900       2.029   1.258   0.794  1.00  0.00     0.198 C 
BRANCH  14  17
HETATM   17  C5  UNK   900       5.095   0.603   0.322  1.00  0.00     0.198 C 
BRANCH  17  18
HETATM   18  O4  UNK   900       5.855  -0.220  -0.546  1.00  0.00    -0.398 OA
HETATM   19  H10 UNK   900       6.539  -0.651  -0.006  1.00  0.00     0.209 HD
ENDBRANCH  17  18
ENDBRANCH  14  17
BRANCH  15  20
HETATM   20  O3  UNK   900       2.590   3.217  -0.505  1.00  0.00    -0.390 OA
HETATM   21  H8  UNK   900       3.332   3.778  -0.791  1.00  0.00     0.210 HD
ENDBRANCH  15  20
BRANCH  16  22
HETATM   22  O2  UNK   900       0.845   1.924   1.185  1.00  0.00    -0.388 OA
HETATM   23  H7  UNK   900       1.078   2.535   1.905  1.00  0.00     0.210 HD
ENDBRANCH  16  22
ENDBRANCH   2  12
BRANCH  10  24
HETATM   24  N5  UNK   900      -3.432  -0.524  -0.583  1.00  0.00    -0.211 N 
HETATM   25  H12 UNK   900      -4.303  -1.033  -0.462  1.00  0.00     0.178 HD
BRANCH  24  26
HETATM   26  C11 UNK   900      -3.493   0.857  -0.949  1.00  0.00     0.195 C 
HETATM   27  C12 UNK   900      -4.833   1.141  -1.609  1.00  0.00     0.043 C 
BRANCH  26  28
HETATM   28  C13 UNK   900      -3.306   1.704   0.294  1.00  0.00     0.281 C 
HETATM   29  O7  UNK   900      -3.171   1.266   1.429  1.00  0.00    -0.263 OA
BRANCH  28  30
HETATM   30  O6  UNK   900      -3.297   3.025  -0.055  1.00  0.00    -0.325 OA
HETATM   31  C14 UNK   900      -3.113   3.947   1.024  1.00  0.00     0.213 C 
ENDBRANCH  28  30
ENDBRANCH  26  28
ENDBRANCH  24  26
ENDBRANCH  10  24
TORSDOF 9
