REMARK  2 active torsions:
REMARK  status: ('A' for Active; 'I' for Inactive)
REMARK    1  A    between atoms: O1_1  and  C7_10 
REMARK    2  A    between atoms: O2_2  and  C8_11 
ROOT
HETATM    1  O3  UNK   900      -3.983  -0.913  -0.253  1.00  0.00    -0.333 OA
HETATM    2  C1  UNK   900       0.993   0.782  -0.089  1.00  0.00    -0.001 C 
HETATM    3  C2  UNK   900       0.710  -0.735  -0.306  1.00  0.00     0.024 C 
HETATM    4  C3  UNK   900       3.145  -0.360  -0.184  1.00  0.00    -0.047 C 
HETATM    5  C4  UNK   900       2.428   0.828   0.468  1.00  0.00     0.014 C 
HETATM    6  C5  UNK   900       2.070  -1.446  -0.085  1.00  0.00     0.016 C 
HETATM    7  C6  UNK   900      -0.027   1.597   0.748  1.00  0.00     0.019 C 
HETATM    8  C7  UNK   900      -0.395  -1.379   0.554  1.00  0.00     0.158 C 
HETATM    9  C8  UNK   900      -1.410   1.714   0.060  1.00  0.00     0.158 C 
HETATM   10  C9  UNK   900       3.524  -0.078  -1.646  1.00  0.00     0.015 C 
HETATM   11  C10 UNK   900       4.407  -0.742   0.594  1.00  0.00     0.015 C 
HETATM   12  C11 UNK   900      -1.769  -0.899   0.206  1.00  0.00     0.004 A 
HETATM   13  C12 UNK   900      -2.201   0.449   0.004  1.00  0.00     0.004 A 
HETATM   14  C13 UNK   900       0.504   3.018   1.020  1.00  0.00     0.013 C 
HETATM   15  C14 UNK   900      -2.902  -1.674   0.037  1.00  0.00     0.151 A 
HETATM   16  C15 UNK   900      -3.554   0.369  -0.270  1.00  0.00     0.151 A 
ENDROOT
BRANCH   8  17
HETATM   17  O1  UNK   900      -0.298  -2.802   0.387  1.00  0.00    -0.390 OA
HETATM   18  H19 UNK   900      -0.387  -2.999  -0.561  1.00  0.00     0.210 HD
ENDBRANCH   8  17
BRANCH   9  19
HETATM   19  O2  UNK   900      -1.242   2.270  -1.247  1.00  0.00    -0.390 OA
HETATM   20  H22 UNK   900      -2.125   2.466  -1.602  1.00  0.00     0.210 HD
ENDBRANCH   9  19
TORSDOF 2
