REMARK  2 active torsions:
REMARK  status: ('A' for Active; 'I' for Inactive)
REMARK    1  A    between atoms: O2_2  and  C5_8 
REMARK    2  A    between atoms: O3_3  and  C6_9 
ROOT
HETATM    1  O1  UNK   900       1.436   0.492  -1.120  1.00  0.00    -0.366 OA
HETATM    2  C1  UNK   900      -0.764   1.080  -0.399  1.00  0.00     0.029 C 
HETATM    3  C2  UNK   900      -1.010  -0.290   0.214  1.00  0.00     0.058 C 
HETATM    4  C3  UNK   900       0.716   1.492  -0.371  1.00  0.00     0.062 C 
HETATM    5  C4  UNK   900       1.400  -0.821  -0.524  1.00  0.00     0.088 C 
HETATM    6  C5  UNK   900      -0.084  -1.321  -0.423  1.00  0.00     0.160 C 
HETATM    7  C6  UNK   900      -2.541  -0.443   0.117  1.00  0.00     0.061 C 
HETATM    8  C7  UNK   900      -1.814   1.924   0.308  1.00  0.00     0.011 C 
HETATM    9  C8  UNK   900       2.176  -0.766   0.834  1.00  0.00     0.018 C 
HETATM   10  C9  UNK   900      -3.052   1.005   0.353  1.00  0.00     0.038 C 
HETATM   11  C10 UNK   900       1.372   1.656   1.014  1.00  0.00     0.038 C 
HETATM   12  C11 UNK   900       1.665   0.354   1.757  1.00  0.00     0.010 C 
HETATM   13  C12 UNK   900       0.882   2.809  -1.146  1.00  0.00     0.046 C 
HETATM   14  C13 UNK   900       2.119  -1.753  -1.522  1.00  0.00     0.049 C 
HETATM   15  C14 UNK   900      -3.060  -1.016  -1.202  1.00  0.00     0.046 C 
HETATM   16  C15 UNK   900       3.693  -0.561   0.645  1.00  0.00     0.013 C 
ENDROOT
BRANCH   7  17
HETATM   17  O3  UNK   900      -2.991  -1.293   1.169  1.00  0.00    -0.390 OA
HETATM   18  H26 UNK   900      -3.964  -1.289   1.160  1.00  0.00     0.210 HD
ENDBRANCH   7  17
BRANCH   6  19
HETATM   19  O2  UNK   900      -0.144  -2.548   0.293  1.00  0.00    -0.392 OA
HETATM   20  H25 UNK   900      -1.074  -2.829   0.322  1.00  0.00     0.210 HD
ENDBRANCH   6  19
TORSDOF 2
