REMARK  2 active torsions:
REMARK  status: ('A' for Active; 'I' for Inactive)
REMARK    1  A    between atoms: O3_3  and  C6_11 
REMARK    2  A    between atoms: O4_4  and  C7_12 
ROOT
HETATM    1  O1  UNK   900       1.267   0.248   1.516  1.00  0.00    -0.350 OA
HETATM    2  O2  UNK   900       1.863  -0.343  -0.746  1.00  0.00    -0.350 OA
HETATM    3  O5  UNK   900      -2.462   1.609  -1.641  1.00  0.00    -0.289 OA
HETATM    4  C1  UNK   900       1.556   0.714   0.181  1.00  0.00     0.168 C 
HETATM    5  C2  UNK   900       0.330   1.489  -0.368  1.00  0.00     0.111 C 
HETATM    6  C3  UNK   900      -0.908   0.733  -0.082  1.00  0.00     0.003 C 
HETATM    7  C4  UNK   900       2.751   1.683   0.261  1.00  0.00     0.069 C 
HETATM    8  C5  UNK   900      -0.997  -0.270   0.792  1.00  0.00    -0.014 C 
HETATM    9  C6  UNK   900      -3.225  -0.090  -0.066  1.00  0.00     0.148 C 
HETATM   10  C7  UNK   900      -2.333  -0.944   0.860  1.00  0.00     0.192 C 
HETATM   11  C8  UNK   900       4.047   0.952   0.597  1.00  0.00     0.008 C 
HETATM   12  C9  UNK   900       0.181  -0.693   1.601  1.00  0.00     0.209 C 
HETATM   13  C10 UNK   900       3.028  -1.101  -0.408  1.00  0.00     0.121 C 
HETATM   14  C11 UNK   900      -2.224   0.850  -0.714  1.00  0.00     0.192 C 
HETATM   15  C12 UNK   900       4.263  -0.203  -0.371  1.00  0.00     0.032 C 
HETATM   16  C13 UNK   900      -4.264   0.715   0.707  1.00  0.00     0.057 C 
HETATM   17  C14 UNK   900       3.181  -2.199  -1.453  1.00  0.00     0.040 C 
ENDROOT
BRANCH  10  18
HETATM   18  O4  UNK   900      -2.208  -2.285   0.407  1.00  0.00    -0.388 OA
HETATM   19  H20 UNK   900      -1.680  -2.771   1.063  1.00  0.00     0.210 HD
ENDBRANCH  10  18
BRANCH   9  20
HETATM   20  O3  UNK   900      -3.848  -0.864  -1.070  1.00  0.00    -0.379 OA
HETATM   21  H19 UNK   900      -4.398  -0.272  -1.612  1.00  0.00     0.211 HD
ENDBRANCH   9  20
TORSDOF 2
