REMARK  4 active torsions:
REMARK  status: ('A' for Active; 'I' for Inactive)
REMARK    1  A    between atoms: O1_1  and  C9_12 
REMARK    2  A    between atoms: O2_2  and  C14_17 
REMARK    3  A    between atoms: C3_6  and  C7_10 
REMARK    4  A    between atoms: C7_10  and  C14_17 
ROOT
HETATM    1  C1  UNK   900      -0.082   0.609   0.024  1.00  0.00     0.022 C 
HETATM    2  C2  UNK   900       0.447  -0.538  -0.891  1.00  0.00     0.024 C 
HETATM    3  C3  UNK   900      -1.247   0.127   0.923  1.00  0.00     0.011 C 
HETATM    4  C4  UNK   900       1.787  -0.099  -1.505  1.00  0.00     0.046 C 
HETATM    5  C5  UNK   900      -0.818  -1.079   1.777  1.00  0.00     0.033 C 
HETATM    6  C6  UNK   900       0.505  -1.898  -0.199  1.00  0.00    -0.083 C 
HETATM    7  C8  UNK   900       1.008   1.246   0.867  1.00  0.00    -0.016 C 
HETATM    8  C9  UNK   900       2.852   0.202  -0.445  1.00  0.00     0.147 C 
HETATM    9  C10 UNK   900      -0.054  -2.112   1.006  1.00  0.00    -0.023 C 
HETATM   10  C11 UNK   900       2.327   1.054   0.686  1.00  0.00    -0.059 C 
HETATM   11  C12 UNK   900       1.158  -3.031  -0.941  1.00  0.00     0.043 C 
HETATM   12  C15 UNK   900       3.339   1.659   1.616  1.00  0.00     0.046 C 
ENDROOT
BRANCH   3  13
HETATM   13  C7  UNK   900      -2.499  -0.199   0.096  1.00  0.00     0.084 C 
HETATM   14  C13 UNK   900      -3.627  -0.683   0.998  1.00  0.00     0.021 C 
BRANCH  13  15
HETATM   15  C14 UNK   900      -2.917   1.024  -0.688  1.00  0.00     0.143 C 
HETATM   16  O3  UNK   900      -3.247   2.100  -0.211  1.00  0.00    -0.650 OA
BRANCH  15  17
HETATM   17  O2  UNK   900      -2.881   0.774  -2.022  1.00  0.00    -0.776 OA
HETATM   18  H22 UNK   900      -3.147   1.558  -2.548  1.00  0.00     0.167 HD
ENDBRANCH  15  17
ENDBRANCH  13  15
ENDBRANCH   3  13
BRANCH   8  19
HETATM   19  O1  UNK   900       3.949   0.846  -1.093  1.00  0.00    -0.391 OA
HETATM   20  H21 UNK   900       4.281   0.240  -1.778  1.00  0.00     0.210 HD
ENDBRANCH   8  19
TORSDOF 4
