REMARK  6 active torsions:
REMARK  status: ('A' for Active; 'I' for Inactive)
REMARK    1  A    between atoms: O1_1  and  C3_7 
REMARK    2  A    between atoms: O2_2  and  C4_8 
REMARK    3  A    between atoms: O4_4  and  C16_20 
REMARK    4  A    between atoms: C1_5  and  C9_13 
REMARK    5  A    between atoms: C9_13  and  C14_18 
REMARK    6  A    between atoms: C14_18  and  C16_20 
ROOT
HETATM    1  C1  UNK   900      -0.406  -0.615   0.182  1.00  0.00     0.061 C 
HETATM    2  C2  UNK   900       0.922   0.056  -0.328  1.00  0.00     0.066 C 
HETATM    3  C3  UNK   900      -0.362  -2.161  -0.134  1.00  0.00     0.087 C 
HETATM    4  C4  UNK   900       1.018   1.598  -0.161  1.00  0.00     0.128 C 
HETATM    5  C5  UNK   900       2.165  -0.641   0.224  1.00  0.00    -0.054 C 
HETATM    6  C6  UNK   900       2.373   2.093  -0.677  1.00  0.00     0.040 C 
HETATM    7  C7  UNK   900       3.538   1.476   0.117  1.00  0.00     0.007 C 
HETATM    8  C8  UNK   900      -0.672  -0.366   1.688  1.00  0.00     0.028 C 
HETATM    9  C10 UNK   900       0.935  -2.764   0.356  1.00  0.00     0.012 C 
HETATM   10  C11 UNK   900       3.324   0.015   0.425  1.00  0.00    -0.015 C 
HETATM   11  C12 UNK   900       2.063  -2.058   0.521  1.00  0.00     0.006 C 
HETATM   12  C13 UNK   900      -0.516  -2.509  -1.626  1.00  0.00     0.051 C 
HETATM   13  C15 UNK   900       4.854   1.686  -0.634  1.00  0.00     0.014 C 
ENDROOT
BRANCH   1  14
HETATM   14  C9  UNK   900      -1.583  -0.009  -0.553  1.00  0.00     0.141 C 
HETATM   15  O3  UNK   900      -1.416   0.867  -1.400  1.00  0.00    -0.297 OA
BRANCH  14  16
HETATM   16  C14 UNK   900      -2.954  -0.549  -0.178  1.00  0.00     0.105 C 
BRANCH  16  17
HETATM   17  C16 UNK   900      -4.064   0.478  -0.350  1.00  0.00     0.174 C 
BRANCH  17  18
HETATM   18  O4  UNK   900      -3.812   1.622   0.456  1.00  0.00    -0.396 OA
HETATM   19  C17 UNK   900      -4.844   2.590   0.324  1.00  0.00     0.201 C 
ENDBRANCH  17  18
ENDBRANCH  16  17
ENDBRANCH  14  16
ENDBRANCH   1  14
BRANCH   3  20
HETATM   20  O1  UNK   900      -1.442  -2.809   0.552  1.00  0.00    -0.385 OA
HETATM   21  H20 UNK   900      -1.408  -3.760   0.351  1.00  0.00     0.211 HD
ENDBRANCH   3  20
BRANCH   4  22
HETATM   22  O2  UNK   900       0.877   2.000   1.196  1.00  0.00    -0.395 OA
HETATM   23  H21 UNK   900       0.952   2.968   1.228  1.00  0.00     0.210 HD
ENDBRANCH   4  22
TORSDOF 6
