REMARK  2 active torsions:
REMARK  status: ('A' for Active; 'I' for Inactive)
REMARK    1  A    between atoms: O2_2  and  C8_12 
REMARK    2  A    between atoms: O4_4  and  C11_15 
ROOT
HETATM    1  O1  UNK   900       0.607  -2.126  -0.049  1.00  0.00    -0.346 OA
HETATM    2  O3  UNK   900       0.448   2.072   0.853  1.00  0.00    -0.286 OA
HETATM    3  C1  UNK   900      -1.361  -0.914   0.480  1.00  0.00    -0.017 A 
HETATM    4  C2  UNK   900      -1.019   0.410   0.193  1.00  0.00     0.057 A 
HETATM    5  C3  UNK   900      -0.329  -1.866   0.991  1.00  0.00     0.215 C 
HETATM    6  C4  UNK   900       1.582   0.144   0.118  1.00  0.00     0.081 A 
HETATM    7  C5  UNK   900       0.347   0.925   0.420  1.00  0.00     0.201 C 
HETATM    8  C6  UNK   900      -2.681  -1.339   0.273  1.00  0.00     0.017 A 
HETATM    9  C7  UNK   900       1.643  -1.236  -0.122  1.00  0.00     0.086 A 
HETATM   10  C8  UNK   900      -1.993   1.303  -0.274  1.00  0.00     0.081 A 
HETATM   11  C9  UNK   900      -3.647  -0.452  -0.202  1.00  0.00    -0.059 A 
HETATM   12  C10 UNK   900      -3.303   0.869  -0.475  1.00  0.00     0.044 A 
HETATM   13  C11 UNK   900       2.771   0.893   0.018  1.00  0.00     0.082 A 
HETATM   14  C12 UNK   900       2.859  -1.828  -0.501  1.00  0.00     0.038 A 
HETATM   15  C13 UNK   900      -5.047  -0.919  -0.418  1.00  0.00     0.048 C 
HETATM   16  C14 UNK   900       3.980   0.290  -0.333  1.00  0.00     0.037 A 
HETATM   17  C15 UNK   900       4.023  -1.071  -0.601  1.00  0.00     0.005 A 
ENDROOT
BRANCH  10  18
HETATM   18  O2  UNK   900      -1.701   2.600  -0.583  1.00  0.00    -0.360 OA
HETATM   19  H11 UNK   900      -0.746   2.757  -0.519  1.00  0.00     0.217 HD
ENDBRANCH  10  18
BRANCH  13  20
HETATM   20  O4  UNK   900       2.819   2.246   0.213  1.00  0.00    -0.360 OA
HETATM   21  H12 UNK   900       1.934   2.633   0.129  1.00  0.00     0.217 HD
ENDBRANCH  13  20
TORSDOF 2
