REMARK  9 active torsions:
REMARK  status: ('A' for Active; 'I' for Inactive)
REMARK    1  A    between atoms: O2_2  and  C13_16 
REMARK    2  A    between atoms: C1_4  and  C5_8 
REMARK    3  A    between atoms: C2_5  and  C6_9 
REMARK    4  A    between atoms: C5_8  and  C9_12 
REMARK    5  A    between atoms: C6_9  and  C8_11 
REMARK    6  A    between atoms: C8_11  and  C10_13 
REMARK    7  A    between atoms: C9_12  and  C11_14 
REMARK    8  A    between atoms: C10_13  and  C12_15 
REMARK    9  A    between atoms: C11_14  and  C13_16 
ROOT
HETATM    1  O1  UNK   900      -2.740   2.192  -1.188  1.00  0.00    -0.298 OA
HETATM    2  C1  UNK   900      -0.002   1.175   0.833  1.00  0.00    -0.003 C 
HETATM    3  C2  UNK   900      -1.522   1.074   0.593  1.00  0.00     0.059 C 
HETATM    4  C3  UNK   900       0.290   2.660   0.582  1.00  0.00     0.013 C 
HETATM    5  C4  UNK   900      -0.553   3.037  -0.632  1.00  0.00     0.079 C 
HETATM    6  C7  UNK   900      -1.732   2.109  -0.497  1.00  0.00     0.131 C 
ENDROOT
BRANCH   2   7
HETATM    7  C5  UNK   900       0.853   0.280  -0.066  1.00  0.00     0.006 C 
BRANCH   7   8
HETATM    8  C9  UNK   900       2.275   0.159   0.472  1.00  0.00     0.010 C 
BRANCH   8   9
HETATM    9  C11 UNK   900       3.136  -0.706  -0.447  1.00  0.00     0.111 C 
BRANCH   9  10
HETATM   10  C13 UNK   900       4.562  -0.809   0.045  1.00  0.00     0.258 C 
HETATM   11  O3  UNK   900       5.005  -0.261   1.044  1.00  0.00    -0.265 OA
BRANCH  10  12
HETATM   12  O2  UNK   900       5.267  -1.610  -0.809  1.00  0.00    -0.326 OA
HETATM   13  C15 UNK   900       6.644  -1.805  -0.475  1.00  0.00     0.213 C 
ENDBRANCH  10  12
ENDBRANCH   9  10
ENDBRANCH   8   9
ENDBRANCH   7   8
ENDBRANCH   2   7
BRANCH   3  14
HETATM   14  C6  UNK   900      -2.051  -0.297   0.216  1.00  0.00     0.012 C 
BRANCH  14  15
HETATM   15  C8  UNK   900      -3.570  -0.377   0.374  1.00  0.00     0.001 C 
BRANCH  15  16
HETATM   16  C10 UNK   900      -4.096  -1.771   0.027  1.00  0.00    -0.000 C 
BRANCH  16  17
HETATM   17  C12 UNK   900      -5.618  -1.839   0.153  1.00  0.00    -0.005 C 
HETATM   18  C14 UNK   900      -6.147  -3.213  -0.224  1.00  0.00     0.005 C 
ENDBRANCH  16  17
ENDBRANCH  15  16
ENDBRANCH  14  15
ENDBRANCH   3  14
TORSDOF 9
