REMARK  5 active torsions:
REMARK  status: ('A' for Active; 'I' for Inactive)
REMARK    1  A    between atoms: O2_2  and  C6_12 
REMARK    2  A    between atoms: N1_6  and  C5_11 
REMARK    3  A    between atoms: C1_7  and  C6_12 
REMARK    4  A    between atoms: C5_11  and  C7_13 
REMARK    5  A    between atoms: C7_13  and  C8_14 
ROOT
HETATM    1  O1  UNK   900       1.848  -2.417  -1.144  1.00  0.00    -0.273 OA
HETATM    2  N1  UNK   900       1.169  -0.375  -0.189  1.00  0.00    -0.330 N 
HETATM    3  C1  UNK   900       1.724   0.604   0.718  1.00  0.00     0.185 C 
HETATM    4  C2  UNK   900       2.820  -0.164   1.435  1.00  0.00     0.045 C 
HETATM    5  C3  UNK   900       3.258  -1.225   0.426  1.00  0.00     0.105 C 
HETATM    6  C4  UNK   900       2.018  -1.458  -0.405  1.00  0.00     0.221 C 
ENDROOT
BRANCH   2   7
HETATM    7  C5  UNK   900      -0.124  -0.191  -0.819  1.00  0.00     0.212 C 
BRANCH   7   8
HETATM    8  C7  UNK   900      -1.192  -0.842   0.038  1.00  0.00     0.200 C 
HETATM    9  O5  UNK   900      -0.985  -1.870   0.678  1.00  0.00    -0.288 OA
BRANCH   8  10
HETATM   10  C8  UNK   900      -2.549  -0.231   0.064  1.00  0.00     0.122 A 
HETATM   11  O4  UNK   900      -2.760   0.882  -0.686  1.00  0.00    -0.319 OA
HETATM   12  C11 UNK   900      -4.057   1.240  -0.495  1.00  0.00     0.142 A 
HETATM   13  C10 UNK   900      -4.677   0.367   0.369  1.00  0.00     0.027 A 
HETATM   14  C9  UNK   900      -3.697  -0.588   0.733  1.00  0.00     0.043 A 
ENDBRANCH   8  10
ENDBRANCH   7   8
ENDBRANCH   2   7
BRANCH   3  15
HETATM   15  C6  UNK   900       2.273   1.736  -0.095  1.00  0.00     0.163 C 
HETATM   16  O3  UNK   900       2.710   1.636  -1.232  1.00  0.00    -0.648 OA
BRANCH  15  17
HETATM   17  O2  UNK   900       2.222   2.896   0.604  1.00  0.00    -0.775 OA
HETATM   18  H8  UNK   900       2.579   3.650   0.088  1.00  0.00     0.167 HD
ENDBRANCH  15  17
ENDBRANCH   3  15
TORSDOF 5
