REMARK  3 active torsions:
REMARK  status: ('A' for Active; 'I' for Inactive)
REMARK    1  A    between atoms: O4_4  and  C13_19 
REMARK    2  A    between atoms: O5_5  and  C14_20 
REMARK    3  A    between atoms: C10_16  and  C14_20 
ROOT
HETATM    1  O1  UNK   900      -1.716   1.015   0.072  1.00  0.00    -0.344 OA
HETATM    2  O2  UNK   900       0.615  -2.520   0.218  1.00  0.00    -0.345 OA
HETATM    3  O3  UNK   900      -3.638  -2.566  -0.248  1.00  0.00    -0.292 OA
HETATM    4  C1  UNK   900      -3.057   0.875   0.560  1.00  0.00     0.132 C 
HETATM    5  C2  UNK   900      -1.583  -1.397  -0.070  1.00  0.00     0.046 C 
HETATM    6  C3  UNK   900      -1.031  -0.178   0.002  1.00  0.00     0.095 C 
HETATM    7  C4  UNK   900      -3.818  -0.178  -0.237  1.00  0.00     0.116 C 
HETATM    8  C5  UNK   900       0.432  -0.099  -0.015  1.00  0.00     0.048 A 
HETATM    9  C6  UNK   900      -3.065  -1.482  -0.165  1.00  0.00     0.163 C 
HETATM   10  C7  UNK   900      -0.772  -2.653  -0.122  1.00  0.00     0.221 C 
HETATM   11  C8  UNK   900       1.180  -1.279   0.091  1.00  0.00     0.086 A 
HETATM   12  C9  UNK   900      -3.732   2.236   0.452  1.00  0.00     0.040 C 
HETATM   13  C10 UNK   900       1.114   1.124  -0.113  1.00  0.00     0.056 A 
HETATM   14  C11 UNK   900       2.577  -1.237   0.115  1.00  0.00     0.074 A 
HETATM   15  C12 UNK   900       2.510   1.163  -0.102  1.00  0.00     0.056 A 
HETATM   16  C13 UNK   900       3.241  -0.017   0.014  1.00  0.00     0.071 A 
ENDROOT
BRANCH  13  17
HETATM   17  C14 UNK   900       0.467   2.425  -0.255  1.00  0.00     0.177 C 
HETATM   18  O6  UNK   900       0.164   2.955  -1.325  1.00  0.00    -0.646 OA
BRANCH  17  19
HETATM   19  O5  UNK   900       0.226   3.013   0.947  1.00  0.00    -0.773 OA
HETATM   20  H14 UNK   900      -0.212   3.885   0.845  1.00  0.00     0.167 HD
ENDBRANCH  17  19
ENDBRANCH  13  17
BRANCH  16  21
HETATM   21  O4  UNK   900       4.601   0.023   0.030  1.00  0.00    -0.356 OA
HETATM   22  C15 UNK   900       5.285  -1.224   0.151  1.00  0.00     0.210 C 
ENDBRANCH  16  21
TORSDOF 3
