REMARK  4 active torsions:
REMARK  status: ('A' for Active; 'I' for Inactive)
REMARK    1  A    between atoms: O3_3  and  C7_13 
REMARK    2  A    between atoms: O4_4  and  C8_14 
REMARK    3  A    between atoms: O5_5  and  C6_12 
REMARK    4  A    between atoms: O6_6  and  C12_18 
ROOT
HETATM    1  O1  UNK   900      -0.246   1.712   0.082  1.00  0.00    -0.301 OA
HETATM    2  O2  UNK   900       0.168  -1.093  -0.242  1.00  0.00    -0.299 OA
HETATM    3  C1  UNK   900       1.009   1.164   0.010  1.00  0.00     0.119 A 
HETATM    4  C2  UNK   900       1.212  -0.207  -0.148  1.00  0.00     0.146 A 
HETATM    5  C3  UNK   900      -1.289   0.827  -0.012  1.00  0.00     0.146 A 
HETATM    6  C4  UNK   900      -1.087  -0.544  -0.170  1.00  0.00     0.146 A 
HETATM    7  C5  UNK   900       2.100   2.028   0.100  1.00  0.00    -0.022 A 
HETATM    8  C6  UNK   900      -2.584   1.341   0.056  1.00  0.00     0.108 A 
HETATM    9  C7  UNK   900      -2.178  -1.408  -0.262  1.00  0.00     0.105 A 
HETATM   10  C8  UNK   900       2.506  -0.721  -0.217  1.00  0.00     0.138 A 
HETATM   11  C9  UNK   900      -3.676   0.478  -0.035  1.00  0.00    -0.023 A 
HETATM   12  C10 UNK   900      -3.473  -0.894  -0.194  1.00  0.00     0.049 A 
HETATM   13  C11 UNK   900       3.395   1.514   0.032  1.00  0.00     0.049 A 
HETATM   14  C12 UNK   900       3.598   0.142  -0.126  1.00  0.00     0.102 A 
HETATM   15  C13 UNK   900       1.908   3.499   0.270  1.00  0.00     0.051 C 
HETATM   16  C14 UNK   900      -5.072   1.004   0.035  1.00  0.00     0.051 C 
ENDROOT
BRANCH   8  17
HETATM   17  O5  UNK   900      -2.781   2.681   0.212  1.00  0.00    -0.357 OA
HETATM   18  H9  UNK   900      -3.725   2.898   0.243  1.00  0.00     0.217 HD
ENDBRANCH   8  17
BRANCH   9  19
HETATM   19  O3  UNK   900      -1.997  -2.748  -0.417  1.00  0.00    -0.353 OA
HETATM   20  C15 UNK   900      -1.902  -3.532   0.771  1.00  0.00     0.210 C 
ENDBRANCH   9  19
BRANCH  10  21
HETATM   21  O4  UNK   900       2.707  -2.060  -0.371  1.00  0.00    -0.351 OA
HETATM   22  C16 UNK   900       2.813  -2.840   0.818  1.00  0.00     0.210 C 
ENDBRANCH  10  21
BRANCH  14  23
HETATM   23  O6  UNK   900       4.870  -0.342  -0.191  1.00  0.00    -0.358 OA
HETATM   24  H10 UNK   900       5.496   0.398  -0.110  1.00  0.00     0.217 HD
ENDBRANCH  14  23
TORSDOF 4
