REMARK  1 active torsions:
REMARK  status: ('A' for Active; 'I' for Inactive)
REMARK    1  A    between atoms: O1_1  and  C2_5 
ROOT
HETATM    1  O2  UNK   900       3.107  -1.866   0.062  1.00  0.00    -0.292 OA
HETATM    2  O3  UNK   900      -4.456  -0.250   0.330  1.00  0.00    -0.293 OA
HETATM    3  C1  UNK   900      -1.034   0.327  -0.374  1.00  0.00     0.029 C 
HETATM    4  C2  UNK   900       0.370   0.465   0.272  1.00  0.00     0.102 C 
HETATM    5  C3  UNK   900       1.486   1.313  -0.356  1.00  0.00     0.061 C 
HETATM    6  C4  UNK   900       2.834   0.572  -0.051  1.00  0.00     0.021 C 
HETATM    7  C5  UNK   900       0.919  -0.924   0.071  1.00  0.00     0.024 C 
HETATM    8  C6  UNK   900      -2.275   0.864   0.372  1.00  0.00     0.071 C 
HETATM    9  C7  UNK   900      -1.263  -1.175  -0.185  1.00  0.00    -0.042 C 
HETATM   10  C8  UNK   900       2.387  -0.882   0.033  1.00  0.00     0.166 C 
HETATM   11  C9  UNK   900      -0.003  -1.858  -0.160  1.00  0.00     0.022 C 
HETATM   12  C10 UNK   900      -1.052   0.641  -1.886  1.00  0.00     0.025 C 
HETATM   13  C11 UNK   900      -3.240  -0.309   0.224  1.00  0.00     0.154 C 
HETATM   14  C12 UNK   900      -2.512  -1.581   0.028  1.00  0.00     0.058 C 
HETATM   15  C13 UNK   900       3.833   0.766  -1.191  1.00  0.00     0.023 C 
HETATM   16  C14 UNK   900       3.454   1.002   1.280  1.00  0.00     0.023 C 
HETATM   17  C15 UNK   900      -2.852   2.174  -0.139  1.00  0.00     0.019 C 
ENDROOT
BRANCH   4  18
HETATM   18  O1  UNK   900       0.296   0.721   1.670  1.00  0.00    -0.384 OA
HETATM   19  H9  UNK   900       0.074   1.661   1.783  1.00  0.00     0.211 HD
ENDBRANCH   4  18
TORSDOF 1
