REMARK  3 active torsions:
REMARK  status: ('A' for Active; 'I' for Inactive)
REMARK    1  A    between atoms: O1_2  and  C8_13 
REMARK    2  A    between atoms: N2_5  and  C2_7 
REMARK    3  A    between atoms: C1_6  and  C3_8 
ROOT
HETATM    1  C1  UNK   900      -1.569   0.227   0.059  1.00  0.00     0.026 A 
HETATM    2  C2  UNK   900      -2.110  -0.977  -0.392  1.00  0.00     0.038 A 
HETATM    3  C4  UNK   900      -2.411   1.259   0.471  1.00  0.00     0.016 A 
HETATM    4  C5  UNK   900      -3.494  -1.148  -0.430  1.00  0.00     0.030 A 
HETATM    5  C6  UNK   900      -3.795   1.088   0.433  1.00  0.00     0.001 A 
HETATM    6  C7  UNK   900      -4.336  -0.116  -0.017  1.00  0.00     0.002 A 
ENDROOT
BRANCH   1   7
HETATM    7  C3  UNK   900      -0.100   0.442   0.110  1.00  0.00     0.114 C 
HETATM    8  S1  UNK   900       0.531   1.743  -0.877  1.00  0.00    -0.078 SA
HETATM    9  C10 UNK   900       2.183   1.289  -0.965  1.00  0.00     0.094 C 
HETATM   10  C8  UNK   900       2.751   0.414  -0.129  1.00  0.00     0.145 C 
HETATM   11  C9  UNK   900       1.988  -0.229   0.977  1.00  0.00     0.301 C 
HETATM   12  O2  UNK   900       2.605  -0.697   1.931  1.00  0.00    -0.263 OA
HETATM   13  N1  UNK   900       0.625  -0.339   0.846  1.00  0.00    -0.200 NA
BRANCH  10  14
HETATM   14  O1  UNK   900       4.096   0.108  -0.196  1.00  0.00    -0.350 OA
HETATM   15  C11 UNK   900       4.311  -1.031  -1.006  1.00  0.00     0.210 C 
ENDBRANCH  10  14
ENDBRANCH   1   7
BRANCH   2  16
HETATM   16  N2  UNK   900      -1.275  -2.035  -0.815  1.00  0.00    -0.398 N 
HETATM   17  H6  UNK   900      -1.686  -2.901  -1.138  1.00  0.00     0.156 HD
HETATM   18  H7  UNK   900      -0.269  -1.936  -0.799  1.00  0.00     0.156 HD
ENDBRANCH   2  16
TORSDOF 3
