REMARK  6 active torsions:
REMARK  status: ('A' for Active; 'I' for Inactive)
REMARK    1  A    between atoms: O2_2  and  C2_8 
REMARK    2  A    between atoms: O4_4  and  C15_21 
REMARK    3  A    between atoms: O6_6  and  C22_28 
REMARK    4  A    between atoms: C8_14  and  C10_16 
REMARK    5  A    between atoms: C10_16  and  C11_17 
REMARK    6  A    between atoms: C14_20  and  C16_22 
ROOT
HETATM    1  O3  UNK   900       1.330   2.535  -0.438  1.00  0.00    -0.305 OA
HETATM    2  O5  UNK   900       2.834   4.271  -0.567  1.00  0.00    -0.257 OA
HETATM    3  C11 UNK   900       1.428   1.106  -0.283  1.00  0.00     0.173 A 
HETATM    4  C14 UNK   900       2.896   0.851  -0.220  1.00  0.00     0.021 A 
HETATM    5  C15 UNK   900       3.558   2.006  -0.330  1.00  0.00     0.151 A 
HETATM    6  C17 UNK   900       2.577   3.085  -0.458  1.00  0.00     0.318 A 
ENDROOT
BRANCH   3   7
HETATM    7  C10 UNK   900       0.671   0.704   0.981  1.00  0.00     0.076 C 
BRANCH   7   8
HETATM    8  C8  UNK   900      -0.805   0.666   0.771  1.00  0.00    -0.055 A 
HETATM    9  C9  UNK   900      -1.420  -0.513   0.348  1.00  0.00     0.017 A 
HETATM   10  C4  UNK   900      -2.806  -0.559   0.142  1.00  0.00    -0.022 A 
HETATM   11  C3  UNK   900      -3.447  -1.839  -0.314  1.00  0.00     0.076 C 
HETATM   12  C5  UNK   900      -3.570   0.587   0.390  1.00  0.00     0.076 A 
HETATM   13  C2  UNK   900      -4.856  -1.583  -0.839  1.00  0.00     0.156 C 
HETATM   14  C1  UNK   900      -5.631  -0.599   0.064  1.00  0.00     0.086 C 
HETATM   15  O1  UNK   900      -4.928   0.648   0.233  1.00  0.00    -0.338 OA
HETATM   16  C6  UNK   900      -6.981  -0.225  -0.570  1.00  0.00     0.049 C 
HETATM   17  C7  UNK   900      -5.908  -1.197   1.455  1.00  0.00     0.049 C 
HETATM   18  C12 UNK   900      -2.950   1.769   0.803  1.00  0.00     0.038 A 
HETATM   19  C13 UNK   900      -1.570   1.808   0.994  1.00  0.00     0.010 A 
BRANCH  13  20
HETATM   20  O2  UNK   900      -4.731  -1.065  -2.167  1.00  0.00    -0.392 OA
HETATM   21  H16 UNK   900      -4.304  -1.748  -2.711  1.00  0.00     0.210 HD
ENDBRANCH  13  20
ENDBRANCH   7   8
ENDBRANCH   3   7
BRANCH   4  22
HETATM   22  C16 UNK   900       3.478  -0.465  -0.099  1.00  0.00    -0.024 A 
HETATM   23  C18 UNK   900       4.316  -0.761   0.975  1.00  0.00     0.015 A 
HETATM   24  C20 UNK   900       4.880  -2.032   1.091  1.00  0.00     0.037 A 
HETATM   25  C22 UNK   900       4.605  -3.007   0.132  1.00  0.00     0.065 A 
HETATM   26  C21 UNK   900       3.766  -2.711  -0.943  1.00  0.00     0.037 A 
HETATM   27  C19 UNK   900       3.203  -1.440  -1.059  1.00  0.00     0.015 A 
BRANCH  25  28
HETATM   28  O6  UNK   900       5.156  -4.246   0.244  1.00  0.00    -0.361 OA
HETATM   29  H22 UNK   900       4.859  -4.792  -0.505  1.00  0.00     0.217 HD
ENDBRANCH  25  28
ENDBRANCH   4  22
BRANCH   5  30
HETATM   30  O4  UNK   900       4.904   2.204  -0.334  1.00  0.00    -0.355 OA
HETATM   31  H19 UNK   900       5.054   3.160  -0.431  1.00  0.00     0.218 HD
ENDBRANCH   5  30
TORSDOF 6
