REMARK  2 active torsions:
REMARK  status: ('A' for Active; 'I' for Inactive)
REMARK    1  A    between atoms: O2_2  and  C5_9 
REMARK    2  A    between atoms: O4_4  and  C10_14 
ROOT
HETATM    1  O1  UNK   900       3.799  -0.399   0.336  1.00  0.00    -0.357 OA
HETATM    2  O3  UNK   900       0.012  -2.649   0.508  1.00  0.00    -0.297 OA
HETATM    3  C1  UNK   900      -0.831   0.817   0.230  1.00  0.00     0.011 C 
HETATM    4  C2  UNK   900       0.070  -0.350  -0.260  1.00  0.00     0.073 C 
HETATM    5  C3  UNK   900      -2.307   0.711  -0.294  1.00  0.00    -0.017 C 
HETATM    6  C4  UNK   900       1.441  -0.258   0.434  1.00  0.00     0.083 C 
HETATM    7  C5  UNK   900      -2.886  -0.682   0.096  1.00  0.00     0.133 C 
HETATM    8  C6  UNK   900      -0.161   2.186  -0.067  1.00  0.00     0.033 C 
HETATM    9  C7  UNK   900      -0.598  -1.692   0.031  1.00  0.00     0.134 C 
HETATM   10  C8  UNK   900       2.025   1.115   0.425  1.00  0.00    -0.050 C 
HETATM   11  C9  UNK   900      -2.037  -1.846  -0.405  1.00  0.00     0.111 C 
HETATM   12  C10 UNK   900       2.610  -1.025  -0.186  1.00  0.00     0.266 C 
HETATM   13  C11 UNK   900       1.319   2.223   0.182  1.00  0.00    -0.021 C 
HETATM   14  C12 UNK   900      -3.173   1.821   0.347  1.00  0.00     0.018 C 
HETATM   15  C13 UNK   900      -2.406   0.883  -1.828  1.00  0.00     0.018 C 
HETATM   16  C14 UNK   900       3.503   0.997   0.546  1.00  0.00     0.205 C 
ENDROOT
BRANCH   7  17
HETATM   17  O2  UNK   900      -2.994  -0.822   1.515  1.00  0.00    -0.394 OA
HETATM   18  H19 UNK   900      -3.434  -1.670   1.697  1.00  0.00     0.210 HD
ENDBRANCH   7  17
BRANCH  12  19
HETATM   19  O4  UNK   900       2.613  -1.028  -1.609  1.00  0.00    -0.371 OA
HETATM   20  H20 UNK   900       3.129  -1.801  -1.893  1.00  0.00     0.212 HD
ENDBRANCH  12  19
TORSDOF 2
