REMARK  4 active torsions:
REMARK  status: ('A' for Active; 'I' for Inactive)
REMARK    1  A    between atoms: O2_2  and  C7_13 
REMARK    2  A    between atoms: O4_4  and  C9_15 
REMARK    3  A    between atoms: O5_5  and  C10_16 
REMARK    4  A    between atoms: O6_6  and  C13_19 
ROOT
HETATM    1  O1  UNK   900      -0.002  -1.182   0.127  1.00  0.00    -0.306 OA
HETATM    2  O3  UNK   900       0.019   2.902  -0.115  1.00  0.00    -0.286 OA
HETATM    3  C1  UNK   900      -1.247   0.916   0.025  1.00  0.00     0.058 A 
HETATM    4  C2  UNK   900      -1.179  -0.474   0.106  1.00  0.00     0.127 A 
HETATM    5  C3  UNK   900       1.256   0.906  -0.017  1.00  0.00     0.082 A 
HETATM    6  C4  UNK   900      -2.484   1.566   0.007  1.00  0.00    -0.042 A 
HETATM    7  C5  UNK   900       0.006   1.683  -0.042  1.00  0.00     0.201 A 
HETATM    8  C6  UNK   900       1.179  -0.484   0.066  1.00  0.00     0.096 A 
HETATM    9  C7  UNK   900      -2.356  -1.222   0.170  1.00  0.00     0.136 A 
HETATM   10  C8  UNK   900      -3.657   0.814   0.072  1.00  0.00     0.047 A 
HETATM   11  C9  UNK   900       2.496   1.547  -0.076  1.00  0.00     0.085 A 
HETATM   12  C10 UNK   900      -3.594  -0.577   0.153  1.00  0.00     0.102 A 
HETATM   13  C11 UNK   900       2.352  -1.240   0.091  1.00  0.00     0.075 A 
HETATM   14  C12 UNK   900      -2.642   3.050  -0.078  1.00  0.00     0.049 C 
HETATM   15  C13 UNK   900       3.593  -0.605   0.033  1.00  0.00     0.073 A 
HETATM   16  C14 UNK   900       3.665   0.785  -0.050  1.00  0.00     0.074 A 
ENDROOT
BRANCH   9  17
HETATM   17  O2  UNK   900      -2.305  -2.583   0.250  1.00  0.00    -0.351 OA
HETATM   18  C15 UNK   900      -2.302  -3.302  -0.980  1.00  0.00     0.210 C 
ENDBRANCH   9  17
BRANCH  12  19
HETATM   19  O5  UNK   900      -4.750  -1.296   0.216  1.00  0.00    -0.358 OA
HETATM   20  H8  UNK   900      -5.506  -0.685   0.192  1.00  0.00     0.217 HD
ENDBRANCH  12  19
BRANCH  11  21
HETATM   21  O4  UNK   900       2.626   2.900  -0.157  1.00  0.00    -0.360 OA
HETATM   22  H7  UNK   900       1.754   3.325  -0.167  1.00  0.00     0.217 HD
ENDBRANCH  11  21
BRANCH  15  23
HETATM   23  O6  UNK   900       4.736  -1.345   0.057  1.00  0.00    -0.356 OA
HETATM   24  C16 UNK   900       4.590  -2.762   0.143  1.00  0.00     0.210 C 
ENDBRANCH  15  23
TORSDOF 4
