REMARK  3 active torsions:
REMARK  status: ('A' for Active; 'I' for Inactive)
REMARK    1  A    between atoms: O2_2  and  C9_14 
REMARK    2  A    between atoms: C3_8  and  C7_12 
REMARK    3  A    between atoms: C7_12  and  C9_14 
ROOT
HETATM    1  O1  UNK   900      -0.349  -2.547   0.277  1.00  0.00    -0.271 OA
HETATM    2  O3  UNK   900      -1.087   2.699   0.437  1.00  0.00    -0.271 OA
HETATM    3  N1  UNK   900      -1.739  -0.714   0.004  1.00  0.00    -0.337 N 
HETATM    4  N2  UNK   900       0.337   0.883   0.341  1.00  0.00    -0.346 N 
HETATM    5  C1  UNK   900      -1.907   0.634  -0.518  1.00  0.00     0.179 C 
HETATM    6  C2  UNK   900      -3.360   0.969  -0.204  1.00  0.00     0.037 C 
HETATM    7  C3  UNK   900       0.638  -0.402  -0.285  1.00  0.00     0.179 C 
HETATM    8  C4  UNK   900      -3.012  -1.341   0.312  1.00  0.00     0.127 C 
HETATM    9  C5  UNK   900      -4.046  -0.393  -0.279  1.00  0.00     0.022 C 
HETATM   10  C6  UNK   900      -0.508  -1.348   0.066  1.00  0.00     0.243 C 
HETATM   11  C8  UNK   900      -0.887   1.517   0.171  1.00  0.00     0.241 C 
HETATM   12  H11 UNK   900       1.088   1.431   0.746  1.00  0.00     0.163 HD
ENDROOT
BRANCH   7  13
HETATM   13  C7  UNK   900       1.982  -0.938   0.181  1.00  0.00     0.071 C 
BRANCH  13  14
HETATM   14  C9  UNK   900       3.174   0.010  -0.066  1.00  0.00     0.053 C 
HETATM   15  C10 UNK   900       3.363   0.331  -1.549  1.00  0.00     0.045 C 
HETATM   16  C11 UNK   900       4.459  -0.604   0.498  1.00  0.00     0.045 C 
BRANCH  14  17
HETATM   17  O2  UNK   900       2.943   1.246   0.613  1.00  0.00    -0.391 OA
HETATM   18  H18 UNK   900       3.709   1.825   0.458  1.00  0.00     0.210 HD
ENDBRANCH  14  17
ENDBRANCH  13  14
ENDBRANCH   7  13
TORSDOF 3
