REMARK  7 active torsions:
REMARK  status: ('A' for Active; 'I' for Inactive)
REMARK    1  A    between atoms: O1_1  and  C7_15 
REMARK    2  A    between atoms: O3_3  and  C15_23 
REMARK    3  A    between atoms: N1_6  and  C3_11 
REMARK       I    between atoms: N1_6  and  C4_12 
REMARK    4  A    between atoms: N2_7  and  C2_10 
REMARK       I    between atoms: N2_7  and  C14_22 
REMARK    5  A    between atoms: C1_9  and  C4_12 
REMARK    6  A    between atoms: C5_13  and  C15_23 
REMARK    7  A    between atoms: C14_22  and  C16_24 
ROOT
HETATM    1  C1  UNK   900      -0.273   2.718   0.212  1.00  0.00     0.059 A 
HETATM    2  C2  UNK   900       1.054   2.321   0.043  1.00  0.00     0.050 A 
HETATM    3  C6  UNK   900      -0.638   4.045  -0.014  1.00  0.00     0.019 A 
HETATM    4  C8  UNK   900       2.016   3.252  -0.351  1.00  0.00     0.030 A 
HETATM    5  C10 UNK   900       0.324   4.976  -0.407  1.00  0.00     0.001 A 
HETATM    6  C11 UNK   900       1.651   4.579  -0.576  1.00  0.00     0.002 A 
ENDROOT
BRANCH   1   7
HETATM    7  C4  UNK   900      -1.302   1.771   0.623  1.00  0.00     0.258 C 
HETATM    8  O2  UNK   900      -1.906   1.967   1.688  1.00  0.00    -0.267 OA
HETATM    9  N1  UNK   900      -1.504   0.682  -0.234  1.00  0.00    -0.320 N 
HETATM   10  H1  UNK   900      -0.815   0.564  -0.974  1.00  0.00     0.169 HD
BRANCH   9  11
HETATM   11  C3  UNK   900      -2.408  -0.399  -0.085  1.00  0.00     0.085 A 
HETATM   12  C5  UNK   900      -2.086  -1.660  -0.586  1.00  0.00     0.069 A 
HETATM   13  C9  UNK   900      -2.981  -2.719  -0.436  1.00  0.00     0.020 A 
HETATM   14  C13 UNK   900      -4.197  -2.517   0.217  1.00  0.00     0.004 A 
HETATM   15  C12 UNK   900      -4.519  -1.256   0.718  1.00  0.00     0.039 A 
HETATM   16  C7  UNK   900      -3.624  -0.197   0.568  1.00  0.00     0.093 A 
BRANCH  12  17
HETATM   17  C15 UNK   900      -0.824  -1.907  -1.273  1.00  0.00     0.295 C 
HETATM   18  O5  UNK   900       0.025  -2.723  -0.898  1.00  0.00    -0.259 OA
BRANCH  17  19
HETATM   19  O3  UNK   900      -0.698  -1.121  -2.385  1.00  0.00    -0.322 OA
HETATM   20  C21 UNK   900       0.504  -1.272  -3.147  1.00  0.00     0.213 C 
ENDBRANCH  17  19
ENDBRANCH  12  17
BRANCH  16  21
HETATM   21  O1  UNK   900      -3.960   1.027   1.066  1.00  0.00    -0.358 OA
HETATM   22  H11 UNK   900      -4.837   0.971   1.483  1.00  0.00     0.217 HD
ENDBRANCH  16  21
ENDBRANCH   9  11
ENDBRANCH   1   7
BRANCH   2  23
HETATM   23  N2  UNK   900       1.443   0.998   0.266  1.00  0.00    -0.322 N 
HETATM   24  C14 UNK   900       2.729   0.452   0.175  1.00  0.00     0.257 C 
HETATM   25  O4  UNK   900       3.762   1.044  -0.122  1.00  0.00    -0.267 OA
HETATM   26  H4  UNK   900       0.686   0.368   0.510  1.00  0.00     0.169 HD
BRANCH  24  27
HETATM   27  C16 UNK   900       2.831  -0.994   0.502  1.00  0.00     0.049 A 
HETATM   28  C17 UNK   900       3.834  -1.785  -0.048  1.00  0.00     0.020 A 
HETATM   29  C19 UNK   900       3.903  -3.135   0.276  1.00  0.00     0.020 A 
HETATM   30  C20 UNK   900       2.952  -3.643   1.146  1.00  0.00     0.116 A 
HETATM   31  N3  UNK   900       1.963  -2.907   1.700  1.00  0.00    -0.272 NA
HETATM   32  C18 UNK   900       1.928  -1.598   1.363  1.00  0.00     0.133 A 
ENDBRANCH  24  27
ENDBRANCH   2  23
TORSDOF 7
