REMARK  4 active torsions:
REMARK  status: ('A' for Active; 'I' for Inactive)
REMARK    1  A    between atoms: O1_2  and  C2_3 
REMARK    2  A    between atoms: C5_6  and  C6_7 
REMARK    3  A    between atoms: C6_7  and  C7_8 
REMARK       I    between atoms: C7_8  and  N1_10 
REMARK    4  A    between atoms: N1_10  and  C8_11 
ROOT
HETATM    1  C6  UNK   900      -1.356  -1.536  -0.106  1.00  0.00     0.097 C 
HETATM    2  C17 UNK   900      -1.535  -2.793  -0.908  1.00  0.00     0.045 C 
HETATM    3  C18 UNK   900      -0.328  -3.682  -0.681  1.00  0.00     0.143 C 
HETATM    4  O3  UNK   900      -0.213  -4.050   0.669  1.00  0.00    -0.354 OA
HETATM    5  C19 UNK   900      -0.005  -2.934   1.476  1.00  0.00     0.143 C 
HETATM    6  C20 UNK   900      -1.113  -1.912   1.334  1.00  0.00     0.045 C 
ENDROOT
BRANCH   1   7
HETATM    7  C5  UNK   900      -2.559  -0.669  -0.134  1.00  0.00    -0.014 C 
HETATM    8  C4  UNK   900      -2.489   0.507   0.602  1.00  0.00    -0.002 C 
HETATM    9  C3  UNK   900      -3.357   1.526   0.226  1.00  0.00     0.024 C 
HETATM   10  C2  UNK   900      -4.552   1.135  -0.363  1.00  0.00     0.094 C 
HETATM   11  C22 UNK   900      -4.862  -0.215  -0.462  1.00  0.00     0.024 C 
HETATM   12  C21 UNK   900      -3.831  -1.143  -0.401  1.00  0.00    -0.002 C 
BRANCH  10  13
HETATM   13  O1  UNK   900      -5.539   2.087  -0.559  1.00  0.00    -0.328 OA
HETATM   14  C1  UNK   900      -5.239   3.431  -0.865  1.00  0.00     0.181 C 
ENDBRANCH  10  13
ENDBRANCH   1   7
BRANCH   1  15
HETATM   15  C7  UNK   900      -0.232  -0.754  -0.689  1.00  0.00     0.259 C 
HETATM   16  O2  UNK   900      -0.498   0.154  -1.534  1.00  0.00    -0.270 OA
HETATM   17  N1  UNK   900       1.061  -0.690  -0.101  1.00  0.00    -0.211 NA
BRANCH  17  18
HETATM   18  C8  UNK   900       1.815   0.515   0.004  1.00  0.00     0.086 C 
HETATM   19  C9  UNK   900       1.261   1.704   0.463  1.00  0.00     0.019 C 
HETATM   20  C10 UNK   900       2.016   2.555   1.244  1.00  0.00     0.003 C 
HETATM   21  C11 UNK   900       3.348   2.295   1.531  1.00  0.00     0.017 C 
HETATM   22  C12 UNK   900       3.968   1.250   0.859  1.00  0.00     0.061 C 
HETATM   23  C13 UNK   900       3.192   0.413   0.086  1.00  0.00     0.035 C 
HETATM   24  N2  UNK   900       5.273   1.039   0.558  1.00  0.00    -0.324 N 
HETATM   25  C14 UNK   900       4.072  -0.347  -0.667  1.00  0.00     0.022 C 
HETATM   26  C15 UNK   900       5.344   0.140  -0.453  1.00  0.00     0.076 C 
HETATM   27  C16 UNK   900       6.359   1.977   0.834  1.00  0.00     0.131 C 
ENDBRANCH  17  18
ENDBRANCH   1  15
TORSDOF 4
