REMARK  6 active torsions:
REMARK  status: ('A' for Active; 'I' for Inactive)
REMARK    1  A    between atoms: O1_2  and  C2_3 
REMARK    2  A    between atoms: C8_9  and  C9_10 
REMARK    3  A    between atoms: C12_13  and  O2_14 
REMARK    4  A    between atoms: O2_14  and  C13_15 
REMARK    5  A    between atoms: C13_15  and  C14_16 
REMARK       I    between atoms: C14_16  and  N1_18 
REMARK    6  A    between atoms: N1_18  and  C15_19 
ROOT
HETATM    1  C9  UNK   900      -1.682  -0.268   0.024  1.00  0.00     0.005 C 
HETATM    2  C10 UNK   900      -0.883  -0.154  -1.104  1.00  0.00     0.002 C 
HETATM    3  C11 UNK   900       0.494  -0.088  -0.939  1.00  0.00     0.024 C 
HETATM    4  C12 UNK   900       1.108  -0.595   0.198  1.00  0.00     0.095 C 
HETATM    5  C22 UNK   900       0.265  -1.098   1.176  1.00  0.00     0.024 C 
HETATM    6  C23 UNK   900      -1.112  -0.931   1.103  1.00  0.00     0.002 C 
ENDROOT
BRANCH   1   7
HETATM    7  C8  UNK   900      -3.122  -0.333  -0.166  1.00  0.00     0.064 C 
HETATM    8  C7  UNK   900      -3.736  -1.552   0.087  1.00  0.00     0.007 C 
HETATM    9  C6  UNK   900      -5.109  -1.536   0.190  1.00  0.00     0.025 C 
HETATM   10  C5  UNK   900      -5.773  -2.627   0.680  1.00  0.00     0.002 C 
HETATM   11  C25 UNK   900      -5.757  -0.369  -0.195  1.00  0.00     0.125 C 
HETATM   12  C4  UNK   900      -7.124  -2.719   0.477  1.00  0.00     0.002 C 
HETATM   13  C3  UNK   900      -7.795  -1.646  -0.057  1.00  0.00     0.026 C 
HETATM   14  C2  UNK   900      -7.139  -0.446  -0.305  1.00  0.00     0.117 C 
HETATM   15  O6  UNK   900      -5.141   0.784  -0.167  1.00  0.00    -0.271 OA
HETATM   16  C24 UNK   900      -3.830   0.838  -0.292  1.00  0.00     0.300 C 
HETATM   17  O5  UNK   900      -3.296   1.815  -0.896  1.00  0.00    -0.259 OA
BRANCH  14  18
HETATM   18  O1  UNK   900      -7.816   0.778  -0.298  1.00  0.00    -0.326 OA
HETATM   19  C1  UNK   900      -7.851   1.450  -0.225  1.00  0.00     0.181 C 
ENDBRANCH  14  18
ENDBRANCH   1   7
BRANCH   4  20
HETATM   20  O2  UNK   900       2.336  -0.054   0.586  1.00  0.00    -0.321 OA
BRANCH  20  21
HETATM   21  C13 UNK   900       2.348   1.317   0.933  1.00  0.00     0.238 C 
BRANCH  21  22
HETATM   22  C14 UNK   900       3.722   1.866   1.021  1.00  0.00     0.282 C 
HETATM   23  O3  UNK   900       4.051   2.634   1.975  1.00  0.00    -0.268 OA
HETATM   24  N1  UNK   900       4.673   1.776  -0.048  1.00  0.00    -0.238 NA
BRANCH  24  25
HETATM   25  C15 UNK   900       6.112   1.349   0.511  1.00  0.00     0.111 C 
HETATM   26  C16 UNK   900       6.867   1.927  -0.864  1.00  0.00     0.057 C 
HETATM   27  C17 UNK   900       8.265   1.393  -0.695  1.00  0.00     0.144 C 
HETATM   28  O4  UNK   900       8.319   0.276   0.126  1.00  0.00    -0.359 OA
HETATM   29  C18 UNK   900       7.385  -0.665  -0.271  1.00  0.00     0.095 C 
HETATM   30  C19 UNK   900       7.728  -1.046  -1.706  1.00  0.00     0.030 C 
HETATM   31  C20 UNK   900       7.527  -1.905   0.585  1.00  0.00     0.030 C 
HETATM   32  C21 UNK   900       5.967  -0.175  -0.162  1.00  0.00     0.052 C 
ENDBRANCH  24  25
ENDBRANCH  21  22
ENDBRANCH  20  21
ENDBRANCH   4  20
TORSDOF 6
