REMARK  3 active torsions:
REMARK  status: ('A' for Active; 'I' for Inactive)
REMARK       I    between atoms: N1_2  and  C2_3 
REMARK    1  A    between atoms: N1_2  and  C9_13 
REMARK    2  A    between atoms: C2_3  and  C3_5 
REMARK    3  A    between atoms: C4_6  and  C5_7 
ROOT
HETATM    1  C9  UNK   900       0.734  -0.153   0.161  1.00  0.00     0.169 C 
HETATM    2  C10 UNK   900       1.371  -1.093  -1.074  1.00  0.00     0.037 C 
HETATM    3  C11 UNK   900       2.500  -0.259  -1.628  1.00  0.00     0.030 C 
HETATM    4  C12 UNK   900       3.583  -0.002  -0.638  1.00  0.00    -0.004 C 
HETATM    5  C13 UNK   900       4.590   0.714  -1.224  1.00  0.00    -0.003 C 
HETATM    6  C14 UNK   900       5.524   1.316  -0.407  1.00  0.00    -0.000 C 
HETATM    7  C15 UNK   900       5.803   0.692   0.785  1.00  0.00     0.002 C 
HETATM    8  C16 UNK   900       4.928  -0.227   1.352  1.00  0.00     0.019 C 
HETATM    9  C17 UNK   900       3.759  -0.497   0.652  1.00  0.00     0.080 C 
HETATM   10  N2  UNK   900       2.744  -1.108   1.461  1.00  0.00    -0.211 NA
HETATM   11  C18 UNK   900       1.321  -1.195   1.293  1.00  0.00     0.276 C 
HETATM   12  O4  UNK   900       0.755  -2.281   1.274  1.00  0.00    -0.268 OA
ENDROOT
BRANCH   1  13
HETATM   13  N1  UNK   900      -0.713  -0.851   0.036  1.00  0.00    -0.290 N 
HETATM   14  C1  UNK   900      -0.875  -1.685  -0.063  1.00  0.00     0.097 C 
HETATM   15  C2  UNK   900      -1.494   0.288  -0.380  1.00  0.00     0.238 C 
HETATM   16  O1  UNK   900      -1.255   0.855  -1.490  1.00  0.00    -0.272 OA
BRANCH  15  17
HETATM   17  C3  UNK   900      -3.109  -0.065  -0.441  1.00  0.00     0.089 A 
HETATM   18  C4  UNK   900      -3.583   1.432   0.345  1.00  0.00     0.098 A 
HETATM   19  C6  UNK   900      -3.391  -0.029   1.282  1.00  0.00     0.018 A 
HETATM   20  C7  UNK   900      -4.615  -0.746   1.523  1.00  0.00     0.001 C 
HETATM   21  C8  UNK   900      -2.216   0.049   2.087  1.00  0.00     0.001 C 
BRANCH  18  22
HETATM   22  C5  UNK   900      -5.200   1.248   0.032  1.00  0.00     0.301 C 
HETATM   23  O2  UNK   900      -5.777   2.059   0.824  1.00  0.00    -0.262 OA
HETATM   24  O3  UNK   900      -5.384   1.540  -1.325  1.00  0.00    -0.149 OA
ENDBRANCH  18  22
ENDBRANCH  15  17
ENDBRANCH   1  13
TORSDOF 3
