REMARK  4 active torsions:
REMARK  status: ('A' for Active; 'I' for Inactive)
REMARK    1  A    between atoms: O1_2  and  C2_3 
REMARK    2  A    between atoms: C4_5  and  C5_6 
REMARK       I    between atoms: C5_6  and  N1_8 
REMARK    3  A    between atoms: C19_23  and  O4_24 
REMARK    4  A    between atoms: C21_26  and  O5_27 
ROOT
HETATM    1  C5  UNK   900      -0.129  -0.561  -0.306  1.00  0.00     0.261 C 
HETATM    2  O2  UNK   900      -0.269  -1.481  -1.167  1.00  0.00    -0.267 OA
HETATM    3  N1  UNK   900      -1.195  -0.268   0.594  1.00  0.00    -0.296 N 
HETATM    4  C6  UNK   900      -2.417   0.309   0.116  1.00  0.00     0.062 A 
HETATM    5  C7  UNK   900      -2.360   1.142  -0.970  1.00  0.00     0.019 A 
HETATM    6  C8  UNK   900      -3.567   1.623  -1.462  1.00  0.00     0.029 A 
HETATM    7  C9  UNK   900      -4.752   1.306  -0.809  1.00  0.00     0.131 A 
HETATM    8  O3  UNK   900      -5.913   1.911  -1.285  1.00  0.00    -0.190 OA
HETATM    9  C10 UNK   900      -4.792   0.409   0.244  1.00  0.00     0.029 A 
HETATM   10  C11 UNK   900      -3.606  -0.111   0.699  1.00  0.00     0.014 A 
HETATM   11  C12 UNK   900      -3.539  -1.400   1.399  1.00  0.00    -0.023 C 
HETATM   12  C13 UNK   900      -4.760  -2.255   1.518  1.00  0.00     0.031 C 
HETATM   13  C14 UNK   900      -2.383  -1.839   1.899  1.00  0.00    -0.010 C 
HETATM   14  C15 UNK   900      -1.271  -0.843   1.934  1.00  0.00     0.090 C 
HETATM   15  C16 UNK   900      -1.637   0.314   2.856  1.00  0.00     0.027 C 
HETATM   16  C17 UNK   900       0.028  -1.455   2.371  1.00  0.00     0.027 C 
ENDROOT
BRANCH   1  17
HETATM   17  C4  UNK   900       1.258  -0.157  -0.045  1.00  0.00     0.060 C 
HETATM   18  C3  UNK   900       1.641   1.114  -0.456  1.00  0.00     0.031 C 
HETATM   19  C2  UNK   900       2.979   1.431  -0.617  1.00  0.00     0.118 C 
HETATM   20  C21 UNK   900       3.958   0.465  -0.428  1.00  0.00     0.138 C 
HETATM   21  C19 UNK   900       3.596  -0.818  -0.034  1.00  0.00     0.118 C 
HETATM   22  C18 UNK   900       2.253  -1.127  -0.057  1.00  0.00     0.031 C 
BRANCH  19  23
HETATM   23  O1  UNK   900       3.360   2.597  -1.281  1.00  0.00    -0.326 OA
HETATM   24  C1  UNK   900       3.951   2.582  -2.572  1.00  0.00     0.181 C 
ENDBRANCH  19  23
BRANCH  20  25
HETATM   25  O5  UNK   900       5.205   0.928   0.006  1.00  0.00    -0.324 OA
HETATM   26  C22 UNK   900       5.398   1.117   1.398  1.00  0.00     0.182 C 
ENDBRANCH  20  25
BRANCH  21  27
HETATM   27  O4  UNK   900       4.599  -1.769   0.004  1.00  0.00    -0.326 OA
HETATM   28  C20 UNK   900       4.364  -3.162  -0.093  1.00  0.00     0.181 C 
ENDBRANCH  21  27
ENDBRANCH   1  17
TORSDOF 4
