REMARK  3 active torsions:
REMARK  status: ('A' for Active; 'I' for Inactive)
REMARK    1  A    between atoms: C5_5  and  N1_6 
REMARK       I    between atoms: N1_6  and  C6_7 
REMARK    2  A    between atoms: C6_7  and  C7_9 
REMARK    3  A    between atoms: C7_9  and  N2_10 
ROOT
HETATM    1  N1  UNK   900       1.400   0.874  -0.648  1.00  0.00    -0.238 NA
HETATM    2  C6  UNK   900       0.760  -0.217  -1.229  1.00  0.00     0.275 C 
HETATM    3  O1  UNK   900       1.317  -1.348  -1.129  1.00  0.00    -0.268 OA
ENDROOT
BRANCH   2   4
HETATM    4  C7  UNK   900      -0.680  -0.251  -1.620  1.00  0.00     0.196 C 
BRANCH   4   5
HETATM    5  N2  UNK   900      -1.416  -0.654  -0.424  1.00  0.00    -0.318 N 
HETATM    6  C8  UNK   900      -0.943  -0.867   0.826  1.00  0.00     0.076 C 
HETATM    7  C9  UNK   900      -1.875  -0.443   1.767  1.00  0.00     0.020 C 
HETATM    8  C10 UNK   900      -2.989  -0.045   1.058  1.00  0.00     0.017 C 
HETATM    9  C11 UNK   900      -4.148   0.649   1.389  1.00  0.00     0.002 C 
HETATM   10  C15 UNK   900      -2.726  -0.420  -0.255  1.00  0.00     0.061 C 
HETATM   11  C12 UNK   900      -5.052   0.891   0.361  1.00  0.00     0.007 C 
HETATM   12  C13 UNK   900      -4.985   0.075  -0.752  1.00  0.00     0.036 C 
HETATM   13 BR1  UNK   900      -6.537  -0.354  -1.792  1.00  0.00    -0.049 Br
HETATM   14  C14 UNK   900      -3.747  -0.382  -1.174  1.00  0.00     0.024 C 
ENDBRANCH   4   5
ENDBRANCH   2   4
BRANCH   1  15
HETATM   15  C5  UNK   900       2.218   0.650   0.682  1.00  0.00     0.110 C 
HETATM   16  C4  UNK   900       3.436   1.613   0.150  1.00  0.00     0.044 A 
HETATM   17  C2  UNK   900       4.639   0.824  -0.056  1.00  0.00     0.023 A 
HETATM   18  C1  UNK   900       4.532   0.732   0.156  1.00  0.00    -0.050 A 
HETATM   19  C3  UNK   900       4.785   0.402  -1.498  1.00  0.00     0.005 C 
HETATM   20  O2  UNK   900       5.071  -0.087   0.871  1.00  0.00     0.000 OA
HETATM   21  C17 UNK   900       4.008  -0.915   1.194  1.00  0.00     0.002 C 
HETATM   22  C16 UNK   900       2.931  -0.728   0.131  1.00  0.00     0.025 C 
ENDBRANCH   1  15
TORSDOF 3
