REMARK  6 active torsions:
REMARK  status: ('A' for Active; 'I' for Inactive)
REMARK    1  A    between atoms: O1_2  and  C2_3 
REMARK    2  A    between atoms: C5_6  and  C6_7 
REMARK    3  A    between atoms: C7_8  and  C8_9 
REMARK       I    between atoms: C8_9  and  N1_11 
REMARK    4  A    between atoms: N1_11  and  C9_12 
REMARK    5  A    between atoms: C9_12  and  C10_13 
REMARK    6  A    between atoms: C10_13  and  N2_14 
ROOT
HETATM    1  C6  UNK   900       1.779  -0.322  -0.202  1.00  0.00     0.086 C 
HETATM    2  C7  UNK   900       0.768  -1.134   0.973  1.00  0.00     0.119 C 
HETATM    3  C15 UNK   900       0.836  -2.547   0.182  1.00  0.00    -0.008 C 
HETATM    4  C16 UNK   900       1.778  -3.430   0.699  1.00  0.00    -0.004 C 
HETATM    5  C17 UNK   900       2.060  -4.552  -0.068  1.00  0.00    -0.000 C 
HETATM    6  C18 UNK   900       1.650  -4.632  -1.372  1.00  0.00     0.000 C 
HETATM    7  C19 UNK   900       0.701  -3.727  -1.824  1.00  0.00     0.004 C 
HETATM    8  C20 UNK   900       0.594  -2.520  -1.145  1.00  0.00     0.047 C 
HETATM    9  C21 UNK   900       0.233  -1.259  -1.781  1.00  0.00     0.236 C 
HETATM   10  O3  UNK   900      -0.374  -1.322  -2.892  1.00  0.00    -0.274 OA
HETATM   11  N3  UNK   900       0.615   0.019  -1.227  1.00  0.00    -0.218 NA
HETATM   12  C22 UNK   900       0.955   0.980  -2.242  1.00  0.00     0.097 C 
ENDROOT
BRANCH   2  13
HETATM   13  C8  UNK   900      -0.666  -0.726   0.345  1.00  0.00     0.256 C 
HETATM   14  O2  UNK   900      -1.504  -1.601   0.724  1.00  0.00    -0.270 OA
HETATM   15  N1  UNK   900      -1.075   0.612   0.659  1.00  0.00    -0.236 NA
BRANCH  15  16
HETATM   16  C9  UNK   900      -2.430   1.056   0.746  1.00  0.00     0.153 C 
BRANCH  16  17
HETATM   17  C10 UNK   900      -3.362   0.381  -0.220  1.00  0.00     0.133 C 
BRANCH  17  18
HETATM   18  N2  UNK   900      -4.727   0.698   0.186  1.00  0.00    -0.323 N 
HETATM   19  C11 UNK   900      -5.804   0.898  -0.598  1.00  0.00     0.076 C 
HETATM   20  C12 UNK   900      -6.819   1.502   0.132  1.00  0.00     0.020 C 
HETATM   21  C13 UNK   900      -6.446   1.377   1.461  1.00  0.00     0.020 C 
HETATM   22  C14 UNK   900      -5.142   0.929   1.448  1.00  0.00     0.076 C 
ENDBRANCH  17  18
ENDBRANCH  16  17
ENDBRANCH  15  16
ENDBRANCH   2  13
BRANCH   1  23
HETATM   23  C5  UNK   900       1.672   1.063   0.659  1.00  0.00     0.060 C 
HETATM   24  C4  UNK   900       2.709   1.073   1.595  1.00  0.00    -0.019 C 
HETATM   25  C3  UNK   900       3.626   2.123   1.657  1.00  0.00     0.020 C 
HETATM   26  C2  UNK   900       3.628   3.124   0.691  1.00  0.00     0.093 C 
HETATM   27  C24 UNK   900       2.399   3.313   0.068  1.00  0.00     0.020 C 
HETATM   28  C23 UNK   900       1.554   2.221  -0.033  1.00  0.00    -0.019 C 
BRANCH  26  29
HETATM   29  O1  UNK   900       4.806   3.579   0.086  1.00  0.00    -0.328 OA
HETATM   30  C1  UNK   900       5.986   2.826   0.039  1.00  0.00     0.181 C 
ENDBRANCH  26  29
ENDBRANCH   1  23
TORSDOF 6
