REMARK  4 active torsions:
REMARK  status: ('A' for Active; 'I' for Inactive)
REMARK    1  A    between atoms: O1_2  and  C2_3 
REMARK    2  A    between atoms: N1_10  and  C9_11 
REMARK    3  A    between atoms: C9_11  and  C10_12 
REMARK       I    between atoms: C10_12  and  N2_14 
REMARK    4  A    between atoms: N2_14  and  C11_15 
ROOT
HETATM    1  C9  UNK   900      -0.585   0.062  -1.212  1.00  0.00     0.197 C 
ENDROOT
BRANCH   1   2
HETATM    2  N1  UNK   900      -1.545  -0.988  -0.969  1.00  0.00    -0.318 N 
HETATM    3  C5  UNK   900      -2.595  -0.977  -0.116  1.00  0.00     0.060 C 
HETATM    4  C4  UNK   900      -2.833  -0.244   1.028  1.00  0.00     0.019 C 
HETATM    5  C6  UNK   900      -3.674  -1.602  -0.708  1.00  0.00     0.019 C 
HETATM    6  C3  UNK   900      -4.142   0.092   1.347  1.00  0.00     0.026 C 
HETATM    7  C2  UNK   900      -5.217  -0.300   0.560  1.00  0.00     0.094 C 
HETATM    8  C19 UNK   900      -4.980  -1.379  -0.285  1.00  0.00     0.026 C 
HETATM    9  C7  UNK   900      -3.143  -2.340  -1.759  1.00  0.00     0.020 C 
HETATM   10  C8  UNK   900      -1.801  -2.007  -1.823  1.00  0.00     0.076 C 
BRANCH   7  11
HETATM   11  O1  UNK   900      -6.335   0.527   0.404  1.00  0.00    -0.328 OA
HETATM   12  C1  UNK   900      -6.129   1.718  -0.353  1.00  0.00     0.181 C 
ENDBRANCH   7  11
ENDBRANCH   1   2
BRANCH   1  13
HETATM   13  C10 UNK   900       0.773  -0.281  -0.684  1.00  0.00     0.279 C 
HETATM   14  O2  UNK   900       1.530  -1.089  -1.303  1.00  0.00    -0.268 OA
HETATM   15  N2  UNK   900       1.449   0.548   0.269  1.00  0.00    -0.210 NA
BRANCH  15  16
HETATM   16  C11 UNK   900       2.748   1.096   0.017  1.00  0.00     0.086 C 
HETATM   17  C12 UNK   900       2.789   2.437  -0.315  1.00  0.00     0.019 C 
HETATM   18  C13 UNK   900       3.983   3.112  -0.411  1.00  0.00     0.003 C 
HETATM   19  C14 UNK   900       5.156   2.377  -0.377  1.00  0.00     0.019 C 
HETATM   20  C15 UNK   900       5.084   0.997  -0.332  1.00  0.00     0.083 C 
HETATM   21  N3  UNK   900       5.967  -0.005  -0.560  1.00  0.00    -0.244 NA
HETATM   22  C18 UNK   900       3.879   0.341  -0.110  1.00  0.00     0.037 C 
HETATM   23  C16 UNK   900       5.462  -1.171  -0.089  1.00  0.00     0.099 C 
HETATM   24  C17 UNK   900       4.160  -0.925   0.328  1.00  0.00     0.024 C 
ENDBRANCH  15  16
ENDBRANCH   1  13
TORSDOF 4
