REMARK  4 active torsions:
REMARK  status: ('A' for Active; 'I' for Inactive)
REMARK    1  A    between atoms: C4_5  and  N2_6 
REMARK       I    between atoms: N2_6  and  C5_7 
REMARK    2  A    between atoms: C5_7  and  C6_9 
REMARK    3  A    between atoms: C6_9  and  C7_10 
REMARK    4  A    between atoms: C7_10  and  C8_11 
ROOT
HETATM    1  C8  UNK   900      -0.804  -0.050   0.160  1.00  0.00     0.161 C 
HETATM    2  N3  UNK   900      -1.883  -1.107   0.637  1.00  0.00    -0.232 NA
HETATM    3  C9  UNK   900      -3.145  -1.135  -0.044  1.00  0.00     0.276 C 
HETATM    4  O2  UNK   900      -3.564  -2.241  -0.481  1.00  0.00    -0.266 OA
HETATM    5  C10 UNK   900      -3.932   0.051  -0.409  1.00  0.00     0.075 C 
HETATM    6  C11 UNK   900      -5.119  -0.281  -1.051  1.00  0.00     0.006 C 
HETATM    7  C12 UNK   900      -5.787   0.757  -1.678  1.00  0.00     0.000 C 
HETATM    8  C13 UNK   900      -5.489   2.080  -1.432  1.00  0.00     0.002 C 
HETATM    9  C14 UNK   900      -4.444   2.384  -0.593  1.00  0.00     0.019 C 
HETATM   10  C15 UNK   900      -3.547   1.379  -0.269  1.00  0.00     0.083 C 
HETATM   11  N4  UNK   900      -2.461   1.823   0.531  1.00  0.00    -0.239 NA
HETATM   12  C16 UNK   900      -1.481   1.132   1.043  1.00  0.00     0.277 C 
HETATM   13  O3  UNK   900      -0.481   2.008   1.483  1.00  0.00    -0.194 OA
ENDROOT
BRANCH   1  14
HETATM   14  C7  UNK   900       0.226  -0.463   1.387  1.00  0.00     0.039 C 
BRANCH  14  15
HETATM   15  C6  UNK   900       0.745  -1.779   0.834  1.00  0.00     0.092 C 
BRANCH  15  16
HETATM   16  C5  UNK   900       2.189  -1.724   0.513  1.00  0.00     0.258 C 
HETATM   17  N2  UNK   900       2.690  -1.139  -0.695  1.00  0.00    -0.186 NA
HETATM   18  O1  UNK   900       2.928  -2.652   0.962  1.00  0.00    -0.270 OA
BRANCH  17  19
HETATM   19  C4  UNK   900       4.048  -0.718  -0.771  1.00  0.00     0.197 C 
HETATM   20  N1  UNK   900       5.139  -1.131  -0.126  1.00  0.00    -0.219 NA
HETATM   21  C3  UNK   900       5.993  -0.157   0.164  1.00  0.00     0.103 C 
HETATM   22  C2  UNK   900       6.231   0.689  -0.905  1.00  0.00     0.030 C 
HETATM   23  C1  UNK   900       7.228   1.716  -0.887  1.00  0.00     0.040 C 
HETATM   24  S1  UNK   900       4.718   0.557  -1.711  1.00  0.00    -0.051 SA
ENDBRANCH  17  19
ENDBRANCH  15  16
ENDBRANCH  14  15
ENDBRANCH   1  14
TORSDOF 4
