REMARK  5 active torsions:
REMARK  status: ('A' for Active; 'I' for Inactive)
REMARK    1  A    between atoms: C8_9  and  C9_10 
REMARK    2  A    between atoms: C12_13  and  O2_14 
REMARK    3  A    between atoms: O2_14  and  C13_15 
REMARK    4  A    between atoms: C13_15  and  C14_16 
REMARK       I    between atoms: C14_16  and  N1_18 
REMARK    5  A    between atoms: N1_18  and  C15_19 
ROOT
HETATM    1  C1  UNK   900       6.160   2.732   2.371  1.00  0.00     0.181 C 
HETATM    2  O1  UNK   900       6.261   2.422   2.100  1.00  0.00    -0.326 OA
HETATM    3  C2  UNK   900       6.425   1.483   1.076  1.00  0.00     0.117 C 
HETATM    4  C3  UNK   900       7.286   1.839   0.069  1.00  0.00     0.026 C 
HETATM    5  C4  UNK   900       7.378   1.023  -1.044  1.00  0.00     0.002 C 
HETATM    6  C5  UNK   900       6.277   0.248  -1.371  1.00  0.00     0.002 C 
HETATM    7  C6  UNK   900       5.186   0.207  -0.545  1.00  0.00     0.025 C 
HETATM    8  C7  UNK   900       3.936  -0.202  -0.993  1.00  0.00     0.007 C 
HETATM    9  C8  UNK   900       2.900  -0.001  -0.088  1.00  0.00     0.064 C 
HETATM   10  C24 UNK   900       3.225   0.038   1.255  1.00  0.00     0.300 C 
HETATM   11  O5  UNK   900       2.280  -0.152   2.071  1.00  0.00    -0.259 OA
HETATM   12  O6  UNK   900       4.381   0.518   1.625  1.00  0.00    -0.271 OA
HETATM   13  C25 UNK   900       5.380   0.621   0.766  1.00  0.00     0.125 C 
ENDROOT
BRANCH   9  14
HETATM   14  C9  UNK   900       1.519  -0.119  -0.542  1.00  0.00     0.005 C 
HETATM   15  C10 UNK   900       0.475   0.468   0.163  1.00  0.00     0.002 C 
HETATM   16  C11 UNK   900      -0.776  -0.139   0.196  1.00  0.00     0.024 C 
HETATM   17  C12 UNK   900      -0.977  -1.416  -0.317  1.00  0.00     0.095 C 
HETATM   18  C22 UNK   900      -0.086  -1.768  -1.325  1.00  0.00     0.024 C 
HETATM   19  C23 UNK   900       1.143  -1.126  -1.423  1.00  0.00     0.002 C 
BRANCH  17  20
HETATM   20  O2  UNK   900      -1.652  -2.395   0.421  1.00  0.00    -0.321 OA
BRANCH  20  21
HETATM   21  C13 UNK   900      -2.728  -3.142  -0.074  1.00  0.00     0.238 C 
BRANCH  21  22
HETATM   22  C14 UNK   900      -3.997  -2.380  -0.137  1.00  0.00     0.282 C 
HETATM   23  O3  UNK   900      -4.862  -2.752  -0.970  1.00  0.00    -0.268 OA
HETATM   24  N1  UNK   900      -4.228  -1.155   0.531  1.00  0.00    -0.238 NA
BRANCH  24  25
HETATM   25  C15 UNK   900      -5.740  -0.914   0.909  1.00  0.00     0.111 C 
HETATM   26  C16 UNK   900      -5.421   0.603   1.459  1.00  0.00     0.057 C 
HETATM   27  C17 UNK   900      -4.932   1.393   0.284  1.00  0.00     0.144 C 
HETATM   28  O4  UNK   900      -6.096   1.921  -0.304  1.00  0.00    -0.359 OA
HETATM   29  C18 UNK   900      -6.949   0.817  -0.461  1.00  0.00     0.095 C 
HETATM   30  C19 UNK   900      -7.678   1.011  -1.772  1.00  0.00     0.030 C 
HETATM   31  C20 UNK   900      -7.991   0.723   0.610  1.00  0.00     0.030 C 
HETATM   32  C21 UNK   900      -6.100  -0.404  -0.611  1.00  0.00     0.052 C 
ENDBRANCH  24  25
ENDBRANCH  21  22
ENDBRANCH  20  21
ENDBRANCH  17  20
ENDBRANCH   9  14
TORSDOF 5
