REMARK  5 active torsions:
REMARK  status: ('A' for Active; 'I' for Inactive)
REMARK    1  A    between atoms: O1_2  and  C2_3 
REMARK    2  A    between atoms: C2_3  and  C3_4 
REMARK    3  A    between atoms: C3_4  and  N1_5 
REMARK    4  A    between atoms: C11_13  and  N2_14 
REMARK       I    between atoms: N2_14  and  C12_15 
REMARK    5  A    between atoms: C12_15  and  C13_17 
ROOT
HETATM    1  N1  UNK   900       3.939  -1.411   0.722  1.00  0.00    -0.324 N 
HETATM    2  C4  UNK   900       3.251  -2.242   1.531  1.00  0.00     0.076 C 
HETATM    3  C5  UNK   900       1.939  -1.786   1.585  1.00  0.00     0.022 C 
HETATM    4  C6  UNK   900       1.935  -0.513   1.057  1.00  0.00     0.035 C 
HETATM    5  C7  UNK   900       3.239  -0.269   0.682  1.00  0.00     0.061 C 
HETATM    6  C8  UNK   900       3.586   0.936   0.092  1.00  0.00     0.017 C 
HETATM    7  C9  UNK   900       2.730   1.997   0.349  1.00  0.00     0.003 C 
HETATM    8  C10 UNK   900       1.417   1.780   0.748  1.00  0.00     0.019 C 
HETATM    9  C11 UNK   900       0.977   0.490   1.011  1.00  0.00     0.086 C 
ENDROOT
BRANCH   9  10
HETATM   10  N2  UNK   900      -0.382   0.093   0.823  1.00  0.00    -0.207 NA
HETATM   11  C12 UNK   900      -1.134   0.694  -0.230  1.00  0.00     0.295 C 
HETATM   12  O2  UNK   900      -0.527   0.824  -1.335  1.00  0.00    -0.264 OA
BRANCH  11  13
HETATM   13  C13 UNK   900      -2.590   0.789  -0.153  1.00  0.00     0.119 C 
HETATM   14  C14 UNK   900      -3.393   1.257  -1.170  1.00  0.00     0.024 C 
HETATM   15  C15 UNK   900      -4.665   0.709  -1.063  1.00  0.00     0.017 C 
HETATM   16  C16 UNK   900      -5.682   0.495  -1.985  1.00  0.00     0.002 C 
HETATM   17  C20 UNK   900      -4.579  -0.174   0.007  1.00  0.00     0.060 C 
HETATM   18  C17 UNK   900      -6.522  -0.607  -1.891  1.00  0.00     0.000 C 
HETATM   19  C18 UNK   900      -6.304  -1.527  -0.885  1.00  0.00     0.002 C 
HETATM   20  C19 UNK   900      -5.591  -1.101   0.224  1.00  0.00     0.017 C 
HETATM   21  N3  UNK   900      -3.440   0.134   0.675  1.00  0.00    -0.322 N 
HETATM   22  C21 UNK   900      -2.945  -0.570   1.854  1.00  0.00     0.131 C 
ENDBRANCH  11  13
ENDBRANCH   9  10
BRANCH   1  23
HETATM   23  C3  UNK   900       5.061  -1.744  -0.120  1.00  0.00     0.138 C 
BRANCH  23  24
HETATM   24  C2  UNK   900       5.424  -0.575  -0.992  1.00  0.00     0.167 C 
BRANCH  24  25
HETATM   25  O1  UNK   900       6.550   0.106  -0.568  1.00  0.00    -0.349 OA
HETATM   26  C1  UNK   900       7.707  -0.555  -0.967  1.00  0.00     0.174 C 
ENDBRANCH  24  25
ENDBRANCH  23  24
ENDBRANCH   1  23
TORSDOF 5
