REMARK  5 active torsions:
REMARK  status: ('A' for Active; 'I' for Inactive)
REMARK    1  A    between atoms: O1_2  and  C2_3 
REMARK    2  A    between atoms: C2_3  and  C3_4 
REMARK    3  A    between atoms: C3_4  and  N1_5 
REMARK    4  A    between atoms: C5_7  and  C6_8 
REMARK       I    between atoms: C6_8  and  N2_10 
REMARK    5  A    between atoms: N2_10  and  C7_11 
ROOT
HETATM    1  N1  UNK   900      -3.037   0.989   0.588  1.00  0.00    -0.292 N 
HETATM    2  C4  UNK   900      -1.853   1.064  -0.059  1.00  0.00     0.083 C 
HETATM    3  C5  UNK   900      -1.325  -0.028  -0.736  1.00  0.00     0.075 C 
HETATM    4  C15 UNK   900      -1.930  -1.248  -0.471  1.00  0.00     0.011 C 
HETATM    5  C16 UNK   900      -1.238  -2.449  -0.545  1.00  0.00     0.000 C 
HETATM    6  C17 UNK   900      -1.958  -3.612  -0.303  1.00  0.00     0.000 C 
HETATM    7  C18 UNK   900      -3.325  -3.556  -0.545  1.00  0.00     0.000 C 
HETATM    8  C19 UNK   900      -3.988  -2.388  -0.191  1.00  0.00     0.005 C 
HETATM    9  C20 UNK   900      -3.229  -1.254   0.016  1.00  0.00     0.056 C 
HETATM   10  C21 UNK   900      -3.841  -0.092   0.469  1.00  0.00     0.261 C 
HETATM   11  O3  UNK   900      -5.090   0.065   0.434  1.00  0.00    -0.267 OA
ENDROOT
BRANCH   3  12
HETATM   12  C6  UNK   900       0.127   0.009  -0.953  1.00  0.00     0.281 C 
HETATM   13  O2  UNK   900       0.648   0.239  -2.065  1.00  0.00    -0.265 OA
HETATM   14  N2  UNK   900       0.958  -0.043   0.187  1.00  0.00    -0.208 NA
BRANCH  14  15
HETATM   15  C7  UNK   900       2.371   0.170   0.140  1.00  0.00     0.086 C 
HETATM   16  C8  UNK   900       2.965   1.012  -0.787  1.00  0.00     0.019 C 
HETATM   17  C9  UNK   900       4.343   1.010  -0.948  1.00  0.00     0.003 C 
HETATM   18  C10 UNK   900       5.118   0.208  -0.141  1.00  0.00     0.019 C 
HETATM   19  C11 UNK   900       6.462   0.133   0.185  1.00  0.00     0.022 C 
HETATM   20  C13 UNK   900       4.531  -0.828   0.574  1.00  0.00     0.083 C 
HETATM   21  C12 UNK   900       6.599  -0.661   1.317  1.00  0.00     0.099 C 
HETATM   22  N3  UNK   900       5.443  -1.322   1.442  1.00  0.00    -0.244 NA
HETATM   23  C14 UNK   900       3.164  -0.856   0.634  1.00  0.00     0.038 C 
ENDBRANCH  14  15
ENDBRANCH   3  12
BRANCH   1  24
HETATM   24  C3  UNK   900      -3.493   2.072   1.439  1.00  0.00     0.141 C 
BRANCH  24  25
HETATM   25  C2  UNK   900      -3.746   3.287   0.556  1.00  0.00     0.167 C 
BRANCH  25  26
HETATM   26  O1  UNK   900      -2.697   3.488  -0.342  1.00  0.00    -0.349 OA
HETATM   27  C1  UNK   900      -1.980   4.590   0.105  1.00  0.00     0.174 C 
ENDBRANCH  25  26
ENDBRANCH  24  25
ENDBRANCH   1  24
TORSDOF 5
