REMARK  5 active torsions:
REMARK  status: ('A' for Active; 'I' for Inactive)
REMARK    1  A    between atoms: O1_2  and  C2_3 
REMARK    2  A    between atoms: C2_3  and  C3_4 
REMARK    3  A    between atoms: C3_4  and  N1_5 
REMARK    4  A    between atoms: C11_13  and  N2_14 
REMARK       I    between atoms: N2_14  and  C12_15 
REMARK    5  A    between atoms: C12_15  and  C13_17 
ROOT
HETATM    1  N1  UNK   900       3.731  -1.137  -0.547  1.00  0.00    -0.324 N 
HETATM    2  C4  UNK   900       3.392  -0.669  -1.771  1.00  0.00     0.076 C 
HETATM    3  C5  UNK   900       2.185   0.003  -1.671  1.00  0.00     0.022 C 
HETATM    4  C6  UNK   900       1.790  -0.195  -0.354  1.00  0.00     0.035 C 
HETATM    5  C7  UNK   900       2.970  -0.441   0.331  1.00  0.00     0.061 C 
HETATM    6  C8  UNK   900       3.015  -0.282   1.710  1.00  0.00     0.017 C 
HETATM    7  C9  UNK   900       1.862  -0.072   2.452  1.00  0.00     0.003 C 
HETATM    8  C10 UNK   900       0.700   0.181   1.744  1.00  0.00     0.019 C 
HETATM    9  C11 UNK   900       0.779   0.413   0.376  1.00  0.00     0.086 C 
ENDROOT
BRANCH   9  10
HETATM   10  N2  UNK   900      -0.487   0.571  -0.276  1.00  0.00    -0.208 NA
HETATM   11  C12 UNK   900      -1.199  -0.572  -0.766  1.00  0.00     0.281 C 
HETATM   12  O2  UNK   900      -0.511  -1.479  -1.279  1.00  0.00    -0.265 OA
BRANCH  11  13
HETATM   13  C13 UNK   900      -2.659  -0.573  -0.916  1.00  0.00     0.076 C 
HETATM   14  C14 UNK   900      -3.348  -0.424  -2.114  1.00  0.00     0.081 C 
HETATM   15  N3  UNK   900      -4.640  -0.173  -1.791  1.00  0.00    -0.324 N 
HETATM   16  C15 UNK   900      -5.787  -0.180  -2.695  1.00  0.00     0.131 C 
HETATM   17  C16 UNK   900      -4.749   0.185  -0.507  1.00  0.00     0.060 C 
HETATM   18  C17 UNK   900      -5.782   0.300   0.411  1.00  0.00     0.017 C 
HETATM   19  C21 UNK   900      -3.481   0.034   0.025  1.00  0.00     0.022 C 
HETATM   20  C18 UNK   900      -5.496   0.568   1.743  1.00  0.00     0.002 C 
HETATM   21  C19 UNK   900      -4.209   0.864   2.168  1.00  0.00     0.000 C 
HETATM   22  C20 UNK   900      -3.209   0.659   1.236  1.00  0.00     0.002 C 
ENDBRANCH  11  13
ENDBRANCH   9  10
BRANCH   1  23
HETATM   23  C3  UNK   900       5.108  -1.495  -0.224  1.00  0.00     0.138 C 
BRANCH  23  24
HETATM   24  C2  UNK   900       5.856  -0.219   0.097  1.00  0.00     0.167 C 
BRANCH  24  25
HETATM   25  O1  UNK   900       6.397  -0.387   1.379  1.00  0.00    -0.349 OA
HETATM   26  C1  UNK   900       7.773  -0.469   1.238  1.00  0.00     0.174 C 
ENDBRANCH  24  25
ENDBRANCH  23  24
ENDBRANCH   1  23
TORSDOF 5
