REMARK  4 active torsions:
REMARK  status: ('A' for Active; 'I' for Inactive)
REMARK    1  A    between atoms: C2_2  and  C4_4 
REMARK    2  A    between atoms: C4_4  and  C5_5 
REMARK    3  A    between atoms: C4_4  and  N2_16 
REMARK       I    between atoms: C5_5  and  N1_7 
REMARK    4  A    between atoms: N1_7  and  C6_8 
ROOT
HETATM    1  C4  UNK   900      -0.487  -0.729  -0.662  1.00  0.00     0.188 C 
ENDROOT
BRANCH   1   2
HETATM    2  C2  UNK   900      -1.108  -0.089  -2.062  1.00  0.00    -0.015 C 
HETATM    3  C1  UNK   900      -1.245  -0.409  -2.340  1.00  0.00    -0.007 C 
HETATM    4  C3  UNK   900      -0.884   1.357  -2.093  1.00  0.00     0.029 C 
ENDBRANCH   1   2
BRANCH   1   5
HETATM    5  C5  UNK   900       0.653   0.427  -0.497  1.00  0.00     0.276 C 
HETATM    6  O1  UNK   900       0.654   1.040   0.583  1.00  0.00    -0.268 OA
HETATM    7  N1  UNK   900       1.945  -0.064  -0.898  1.00  0.00    -0.238 NA
BRANCH   7   8
HETATM    8  C6  UNK   900       2.992  -0.248   0.277  1.00  0.00     0.111 C 
HETATM    9  C7  UNK   900       2.773   1.307   0.795  1.00  0.00     0.057 C 
HETATM   10  C8  UNK   900       4.154   1.874   0.956  1.00  0.00     0.144 C 
HETATM   11  O2  UNK   900       4.973   0.828   1.417  1.00  0.00    -0.359 OA
HETATM   12  C9  UNK   900       5.459   0.238   0.237  1.00  0.00     0.095 C 
HETATM   13  C10 UNK   900       6.452   1.201  -0.351  1.00  0.00     0.030 C 
HETATM   14  C11 UNK   900       6.060  -1.120   0.481  1.00  0.00     0.030 C 
HETATM   15  C12 UNK   900       4.256   0.182  -0.699  1.00  0.00     0.052 C 
ENDBRANCH   7   8
ENDBRANCH   1   5
BRANCH   1  16
HETATM   16  N2  UNK   900      -1.553  -0.046   0.298  1.00  0.00    -0.284 N 
HETATM   17  C13 UNK   900      -2.514   0.921  -0.010  1.00  0.00     0.079 C 
HETATM   18  C14 UNK   900      -3.837   0.323   0.352  1.00  0.00     0.022 C 
HETATM   19  C15 UNK   900      -5.037   0.460  -0.337  1.00  0.00     0.002 C 
HETATM   20  C19 UNK   900      -3.639  -0.777   1.173  1.00  0.00     0.058 C 
HETATM   21  C16 UNK   900      -5.850  -0.650  -0.550  1.00  0.00     0.000 C 
HETATM   22  C17 UNK   900      -5.710  -1.722   0.327  1.00  0.00     0.000 C 
HETATM   23  C18 UNK   900      -4.711  -1.657   1.289  1.00  0.00     0.005 C 
HETATM   24  C20 UNK   900      -2.181  -0.914   1.257  1.00  0.00     0.261 C 
HETATM   25  O3  UNK   900      -1.615  -1.731   2.023  1.00  0.00    -0.267 OA
ENDBRANCH   1  16
TORSDOF 4
