REMARK  5 active torsions:
REMARK  status: ('A' for Active; 'I' for Inactive)
REMARK       I    between atoms: N1_2  and  C2_3 
REMARK    1  A    between atoms: C2_3  and  C3_5 
REMARK    2  A    between atoms: C6_8  and  N2_9 
REMARK       I    between atoms: N2_9  and  C7_10 
REMARK    3  A    between atoms: C7_10  and  C8_12 
REMARK    4  A    between atoms: C8_12  and  C9_13 
REMARK    5  A    between atoms: C14_18  and  C15_19 
ROOT
HETATM    1  N2  UNK   900      -0.411  -0.187  -0.253  1.00  0.00    -0.211 NA
HETATM    2  C7  UNK   900      -0.921   0.502  -1.386  1.00  0.00     0.260 C 
HETATM    3  O2  UNK   900      -0.361   1.562  -1.747  1.00  0.00    -0.270 OA
ENDROOT
BRANCH   2   4
HETATM    4  C8  UNK   900      -2.229   0.115  -1.973  1.00  0.00     0.117 C 
BRANCH   4   5
HETATM    5  C9  UNK   900      -3.004  -0.661  -0.981  1.00  0.00    -0.007 C 
HETATM    6  C10 UNK   900      -3.194  -2.033  -1.091  1.00  0.00    -0.004 C 
HETATM    7  C11 UNK   900      -3.949  -2.708  -0.139  1.00  0.00    -0.000 C 
HETATM    8  C12 UNK   900      -3.950  -2.121   1.121  1.00  0.00     0.000 C 
HETATM    9  C13 UNK   900      -3.995  -0.733   1.157  1.00  0.00     0.006 C 
HETATM   10  C14 UNK   900      -3.465   0.035   0.129  1.00  0.00     0.061 C 
BRANCH  10  11
HETATM   11  C15 UNK   900      -3.964   1.404  -0.016  1.00  0.00     0.210 C 
HETATM   12  O3  UNK   900      -5.200   1.621   0.090  1.00  0.00    -0.644 OA
HETATM   13  O4  UNK   900      -3.117   2.484   0.224  1.00  0.00    -0.644 OA
ENDBRANCH  10  11
ENDBRANCH   4   5
ENDBRANCH   2   4
BRANCH   1  14
HETATM   14  C6  UNK   900       0.975  -0.138   0.055  1.00  0.00     0.084 C 
HETATM   15  C5  UNK   900       1.648   1.075   0.085  1.00  0.00     0.019 C 
HETATM   16  C4  UNK   900       2.902   1.068   0.638  1.00  0.00     0.006 C 
HETATM   17  C3  UNK   900       3.661  -0.090   0.716  1.00  0.00     0.058 C 
HETATM   18  C17 UNK   900       3.008  -1.279   0.422  1.00  0.00     0.006 C 
HETATM   19  C16 UNK   900       1.723  -1.287  -0.107  1.00  0.00     0.019 C 
BRANCH  17  20
HETATM   20  C2  UNK   900       5.107  -0.074   0.599  1.00  0.00     0.275 C 
HETATM   21  N1  UNK   900       5.890   1.071   0.933  1.00  0.00    -0.232 NA
HETATM   22  C1  UNK   900       7.080   1.444   0.172  1.00  0.00     0.155 C 
HETATM   23  O1  UNK   900       5.764  -1.069   0.179  1.00  0.00    -0.266 OA
ENDBRANCH  17  20
ENDBRANCH   1  14
TORSDOF 5
