REMARK  4 active torsions:
REMARK  status: ('A' for Active; 'I' for Inactive)
REMARK    1  A    between atoms: C2_2  and  C4_4 
REMARK    2  A    between atoms: C4_4  and  C5_5 
REMARK    3  A    between atoms: C4_4  and  N2_16 
REMARK       I    between atoms: C5_5  and  N1_7 
REMARK    4  A    between atoms: N1_7  and  C6_8 
ROOT
HETATM    1  C4  UNK   900      -0.649  -1.556   0.979  1.00  0.00     0.145 C 
ENDROOT
BRANCH   1   2
HETATM    2  C2  UNK   900      -1.135  -3.038   0.436  1.00  0.00     0.024 C 
HETATM    3  C1  UNK   900      -0.843  -3.470   0.755  1.00  0.00     0.002 C 
HETATM    4  C3  UNK   900      -1.057  -2.991  -1.059  1.00  0.00     0.002 C 
ENDBRANCH   1   2
BRANCH   1   5
HETATM    5  C5  UNK   900       0.628  -1.514  -0.021  1.00  0.00     0.266 C 
HETATM    6  O1  UNK   900       1.448  -2.430   0.295  1.00  0.00    -0.269 OA
HETATM    7  N1  UNK   900       1.174  -0.239  -0.260  1.00  0.00    -0.239 NA
BRANCH   7   8
HETATM    8  C6  UNK   900       2.577   0.064   0.394  1.00  0.00     0.111 C 
HETATM    9  C7  UNK   900       3.356  -0.902  -0.688  1.00  0.00     0.057 C 
HETATM   10  C8  UNK   900       4.787  -0.487  -0.505  1.00  0.00     0.144 C 
HETATM   11  O2  UNK   900       5.011   0.804  -1.000  1.00  0.00    -0.359 OA
HETATM   12  C9  UNK   900       4.257   1.682  -0.220  1.00  0.00     0.095 C 
HETATM   13  C10 UNK   900       4.677   3.087  -0.524  1.00  0.00     0.030 C 
HETATM   14  C11 UNK   900       4.566   1.365   1.236  1.00  0.00     0.030 C 
HETATM   15  C12 UNK   900       2.802   1.400  -0.545  1.00  0.00     0.052 C 
ENDBRANCH   7   8
ENDBRANCH   1   5
BRANCH   1  16
HETATM   16  N2  UNK   900      -1.573  -0.790  -0.055  1.00  0.00    -0.208 NA
HETATM   17  C13 UNK   900      -1.319   0.627  -0.303  1.00  0.00     0.107 C 
HETATM   18  C14 UNK   900      -2.457   1.370   0.266  1.00  0.00    -0.002 C 
HETATM   19  C15 UNK   900      -2.588   2.649   0.759  1.00  0.00    -0.003 C 
HETATM   20  C19 UNK   900      -3.543   0.507   0.234  1.00  0.00     0.048 C 
HETATM   21  C16 UNK   900      -3.832   3.185   0.981  1.00  0.00    -0.000 C 
HETATM   22  C17 UNK   900      -4.918   2.389   0.715  1.00  0.00     0.000 C 
HETATM   23  C18 UNK   900      -4.811   1.027   0.467  1.00  0.00     0.004 C 
HETATM   24  C20 UNK   900      -2.959  -0.839   0.305  1.00  0.00     0.237 C 
HETATM   25  O3  UNK   900      -3.597  -1.898   0.587  1.00  0.00    -0.274 OA
ENDBRANCH   1  16
TORSDOF 4
