REMARK  5 active torsions:
REMARK  status: ('A' for Active; 'I' for Inactive)
REMARK    1  A    between atoms: O1_2  and  C2_3 
REMARK    2  A    between atoms: N1_5  and  C4_6 
REMARK    3  A    between atoms: C4_6  and  C5_7 
REMARK       I    between atoms: C5_7  and  N2_9 
REMARK    4  A    between atoms: N2_9  and  C6_10 
REMARK    5  A    between atoms: C14_19  and  C15_20 
ROOT
HETATM    1  C4  UNK   900      -1.055   1.125   1.555  1.00  0.00     0.197 C 
ENDROOT
BRANCH   1   2
HETATM    2  N1  UNK   900      -2.323   0.728   0.975  1.00  0.00    -0.317 N 
HETATM    3  C3  UNK   900      -2.528  -0.595   0.753  1.00  0.00     0.104 C 
HETATM    4  C2  UNK   900      -3.692  -1.025   0.129  1.00  0.00     0.150 C 
HETATM    5  C17 UNK   900      -4.636  -0.035  -0.119  1.00  0.00     0.220 C 
HETATM    6  C16 UNK   900      -4.273   1.306  -0.165  1.00  0.00     0.059 C 
HETATM    7  O4  UNK   900      -5.819  -0.422  -0.342  1.00  0.00    -0.284 OA
HETATM    8  C14 UNK   900      -3.001   1.663   0.267  1.00  0.00     0.074 C 
BRANCH   4   9
HETATM    9  O1  UNK   900      -3.712  -2.179  -0.664  1.00  0.00    -0.323 OA
HETATM   10  C1  UNK   900      -3.025  -3.350  -0.315  1.00  0.00     0.182 C 
ENDBRANCH   4   9
BRANCH   8  11
HETATM   11  C15 UNK   900      -2.314   2.812  -0.397  1.00  0.00     0.226 C 
HETATM   12  O3  UNK   900      -3.223   3.856  -0.560  1.00  0.00    -0.214 OA
ENDBRANCH   8  11
ENDBRANCH   1   2
BRANCH   1  13
HETATM   13  C5  UNK   900       0.049   0.849   0.621  1.00  0.00     0.279 C 
HETATM   14  O2  UNK   900      -0.170   0.200  -0.441  1.00  0.00    -0.268 OA
HETATM   15  N2  UNK   900       1.387   0.902   1.103  1.00  0.00    -0.210 NA
BRANCH  15  16
HETATM   16  C6  UNK   900       2.443   0.315   0.343  1.00  0.00     0.085 C 
HETATM   17  C7  UNK   900       2.153  -0.291  -0.875  1.00  0.00     0.021 C 
HETATM   18  C8  UNK   900       3.229  -0.465  -1.725  1.00  0.00     0.021 C 
HETATM   19  C9  UNK   900       4.463  -0.727  -1.174  1.00  0.00     0.082 C 
HETATM   20  N3  UNK   900       5.684  -0.881  -1.706  1.00  0.00    -0.244 NA
HETATM   21  C12 UNK   900       4.596  -0.715   0.198  1.00  0.00     0.021 C 
HETATM   22  C10 UNK   900       6.401  -1.524  -0.753  1.00  0.00     0.099 C 
HETATM   23  C11 UNK   900       5.786  -1.371   0.484  1.00  0.00     0.022 C 
HETATM   24  C13 UNK   900       3.578  -0.176   0.977  1.00  0.00     0.021 C 
ENDBRANCH  15  16
ENDBRANCH   1  13
TORSDOF 5
