REMARK  3 active torsions:
REMARK  status: ('A' for Active; 'I' for Inactive)
REMARK    1  A    between atoms: N1_10  and  C10_11 
REMARK    2  A    between atoms: C10_11  and  C11_12 
REMARK       I    between atoms: C11_12  and  N2_14 
REMARK    3  A    between atoms: N2_14  and  C12_15 
ROOT
HETATM    1  C11 UNK   900      -0.266   0.439  -0.910  1.00  0.00     0.279 C 
HETATM    2  O1  UNK   900      -0.382   0.528   0.346  1.00  0.00    -0.268 OA
HETATM    3  N2  UNK   900      -1.321  -0.149  -1.644  1.00  0.00    -0.210 NA
ENDROOT
BRANCH   1   4
HETATM    4  C10 UNK   900       1.003   0.914  -1.498  1.00  0.00     0.197 C 
BRANCH   4   5
HETATM    5  N1  UNK   900       2.086   0.068  -1.004  1.00  0.00    -0.318 N 
HETATM    6  C6  UNK   900       2.711   0.242   0.178  1.00  0.00     0.060 C 
HETATM    7  C5  UNK   900       2.518   1.031   1.292  1.00  0.00     0.017 C 
HETATM    8  C7  UNK   900       3.888  -0.486   0.088  1.00  0.00     0.013 C 
HETATM    9  C4  UNK   900       3.252   0.818   2.447  1.00  0.00     0.001 C 
HETATM   10  C3  UNK   900       4.426   0.084   2.367  1.00  0.00    -0.004 C 
HETATM   11  C2  UNK   900       4.774  -0.431   1.135  1.00  0.00    -0.020 C 
HETATM   12  C1  UNK   900       6.117  -1.037   0.990  1.00  0.00     0.031 C 
HETATM   13  C8  UNK   900       3.672  -1.401  -0.907  1.00  0.00     0.020 C 
HETATM   14  C9  UNK   900       2.401  -1.182  -1.421  1.00  0.00     0.076 C 
ENDBRANCH   4   5
ENDBRANCH   1   4
BRANCH   3  15
HETATM   15  C12 UNK   900      -2.669   0.165  -1.275  1.00  0.00     0.086 C 
HETATM   16  C13 UNK   900      -3.268   1.320  -1.764  1.00  0.00     0.019 C 
HETATM   17  C14 UNK   900      -4.602   1.553  -1.458  1.00  0.00     0.003 C 
HETATM   18  C15 UNK   900      -5.267   0.600  -0.701  1.00  0.00     0.019 C 
HETATM   19  C16 UNK   900      -4.499  -0.146   0.173  1.00  0.00     0.083 C 
HETATM   20  N3  UNK   900      -4.892  -1.024   1.124  1.00  0.00    -0.244 NA
HETATM   21  C19 UNK   900      -3.143  -0.323  -0.065  1.00  0.00     0.037 C 
HETATM   22  C17 UNK   900      -3.747  -1.377   1.758  1.00  0.00     0.099 C 
HETATM   23  C18 UNK   900      -2.792  -1.392   0.748  1.00  0.00     0.024 C 
ENDBRANCH   3  15
TORSDOF 3
