REMARK  4 active torsions:
REMARK  status: ('A' for Active; 'I' for Inactive)
REMARK    1  A    between atoms: C9_10  and  C10_11 
REMARK       I    between atoms: C10_11  and  N2_13 
REMARK    2  A    between atoms: N2_13  and  C11_14 
REMARK    3  A    between atoms: C11_14  and  C12_15 
REMARK    4  A    between atoms: C12_15  and  N3_16 
ROOT
HETATM    1  C10 UNK   900      -1.101  -0.435   0.034  1.00  0.00     0.275 C 
HETATM    2  O1  UNK   900      -0.667  -0.720   1.188  1.00  0.00    -0.266 OA
HETATM    3  N2  UNK   900      -0.289  -0.872  -1.057  1.00  0.00    -0.232 NA
ENDROOT
BRANCH   1   4
HETATM    4  C9  UNK   900      -2.222   0.454  -0.202  1.00  0.00     0.059 C 
HETATM    5  C4  UNK   900      -3.535   0.032  -0.033  1.00  0.00     0.022 C 
HETATM    6  C3  UNK   900      -4.012  -1.024   0.733  1.00  0.00     0.020 C 
HETATM    7  C5  UNK   900      -4.589   0.812  -0.469  1.00  0.00     0.060 C 
HETATM    8  C2  UNK   900      -5.385  -0.972   0.576  1.00  0.00     0.076 C 
HETATM    9  N1  UNK   900      -5.700   0.144  -0.120  1.00  0.00    -0.324 N 
HETATM   10  C1  UNK   900      -7.077   0.516  -0.430  1.00  0.00     0.131 C 
HETATM   11  C6  UNK   900      -4.333   1.767  -1.445  1.00  0.00     0.017 C 
HETATM   12  C7  UNK   900      -3.068   2.341  -1.396  1.00  0.00     0.002 C 
HETATM   13  C8  UNK   900      -2.064   1.768  -0.625  1.00  0.00     0.005 C 
ENDBRANCH   1   4
BRANCH   3  14
HETATM   14  C11 UNK   900       1.100  -1.218  -0.870  1.00  0.00     0.153 C 
BRANCH  14  15
HETATM   15  C12 UNK   900       1.567  -0.961   0.558  1.00  0.00     0.133 C 
BRANCH  15  16
HETATM   16  N3  UNK   900       3.009  -1.189   0.549  1.00  0.00    -0.324 N 
HETATM   17  C13 UNK   900       3.670  -2.334   0.251  1.00  0.00     0.076 C 
HETATM   18  C14 UNK   900       5.005  -2.059   0.002  1.00  0.00     0.020 C 
HETATM   19  C15 UNK   900       5.117  -0.676   0.015  1.00  0.00     0.017 C 
HETATM   20  C16 UNK   900       6.030   0.234  -0.501  1.00  0.00     0.002 C 
HETATM   21  C20 UNK   900       3.985  -0.261   0.707  1.00  0.00     0.060 C 
HETATM   22  C17 UNK   900       5.718   1.587  -0.459  1.00  0.00     0.000 C 
HETATM   23  C18 UNK   900       4.887   1.987   0.579  1.00  0.00     0.002 C 
HETATM   24  C19 UNK   900       3.956   1.078   1.055  1.00  0.00     0.017 C 
ENDBRANCH  15  16
ENDBRANCH  14  15
ENDBRANCH   3  14
TORSDOF 4
