REMARK  7 active torsions:
REMARK  status: ('A' for Active; 'I' for Inactive)
REMARK    1  A    between atoms: O1_2  and  C2_3 
REMARK    2  A    between atoms: C5_6  and  C6_7 
REMARK    3  A    between atoms: C6_7  and  C7_8 
REMARK       I    between atoms: C7_8  and  N1_10 
REMARK    4  A    between atoms: N1_10  and  C8_11 
REMARK    5  A    between atoms: C8_11  and  C9_12 
REMARK    6  A    between atoms: C9_12  and  C10_13 
REMARK    7  A    between atoms: C15_19  and  O3_20 
ROOT
HETATM    1  C7  UNK   900       0.941   1.136  -0.231  1.00  0.00     0.254 C 
HETATM    2  O2  UNK   900       0.674   1.774  -1.295  1.00  0.00    -0.270 OA
HETATM    3  N1  UNK   900      -0.066   1.121   0.760  1.00  0.00    -0.237 NA
ENDROOT
BRANCH   1   4
HETATM    4  C6  UNK   900       2.149   0.253  -0.190  1.00  0.00     0.096 C 
HETATM    5  C19 UNK   900       2.188  -0.459  -1.513  1.00  0.00     0.045 C 
HETATM    6  C20 UNK   900       2.858  -1.797  -1.467  1.00  0.00     0.143 C 
HETATM    7  O4  UNK   900       2.179  -2.560  -0.504  1.00  0.00    -0.354 OA
HETATM    8  C21 UNK   900       2.585  -2.050   0.730  1.00  0.00     0.143 C 
HETATM    9  C22 UNK   900       2.073  -0.666   0.992  1.00  0.00     0.045 C 
BRANCH   4  10
HETATM   10  C5  UNK   900       3.317   1.179  -0.067  1.00  0.00    -0.014 C 
HETATM   11  C4  UNK   900       3.948   1.304   1.162  1.00  0.00    -0.002 C 
HETATM   12  C3  UNK   900       5.288   1.661   1.242  1.00  0.00     0.024 C 
HETATM   13  C2  UNK   900       6.082   1.570   0.105  1.00  0.00     0.094 C 
HETATM   14  C24 UNK   900       5.431   1.795  -1.095  1.00  0.00     0.024 C 
HETATM   15  C23 UNK   900       4.061   1.575  -1.171  1.00  0.00    -0.002 C 
BRANCH  13  16
HETATM   16  O1  UNK   900       7.388   1.085   0.150  1.00  0.00    -0.328 OA
HETATM   17  C1  UNK   900       7.799   0.021  -0.675  1.00  0.00     0.181 C 
ENDBRANCH  13  16
ENDBRANCH   4  10
ENDBRANCH   1   4
BRANCH   3  18
HETATM   18  C8  UNK   900      -1.491   1.182   0.447  1.00  0.00     0.133 C 
BRANCH  18  19
HETATM   19  C9  UNK   900      -2.109  -0.083   1.032  1.00  0.00     0.054 C 
BRANCH  19  20
HETATM   20  C10 UNK   900      -2.790  -0.877  -0.012  1.00  0.00     0.001 C 
HETATM   21  C11 UNK   900      -2.268  -1.530  -1.114  1.00  0.00     0.095 C 
HETATM   22  N2  UNK   900      -3.285  -2.233  -1.665  1.00  0.00    -0.244 NA
HETATM   23  C12 UNK   900      -4.460  -1.857  -1.148  1.00  0.00     0.081 C 
HETATM   24  C13 UNK   900      -5.798  -2.068  -1.440  1.00  0.00     0.021 C 
HETATM   25  C18 UNK   900      -4.171  -0.953  -0.145  1.00  0.00     0.017 C 
HETATM   26  C14 UNK   900      -6.785  -1.240  -0.921  1.00  0.00     0.026 C 
HETATM   27  C15 UNK   900      -6.439  -0.175  -0.132  1.00  0.00     0.094 C 
HETATM   28  C17 UNK   900      -5.177  -0.202   0.449  1.00  0.00     0.025 C 
BRANCH  27  29
HETATM   29  O3  UNK   900      -7.278   0.878   0.180  1.00  0.00    -0.328 OA
HETATM   30  C16 UNK   900      -6.843   2.216   0.327  1.00  0.00     0.181 C 
ENDBRANCH  27  29
ENDBRANCH  19  20
ENDBRANCH  18  19
ENDBRANCH   3  18
TORSDOF 7
