REMARK  6 active torsions:
REMARK  status: ('A' for Active; 'I' for Inactive)
REMARK    1  A    between atoms: O1_2  and  C2_3 
REMARK    2  A    between atoms: C5_6  and  C6_7 
REMARK    3  A    between atoms: C7_8  and  C8_9 
REMARK       I    between atoms: C8_9  and  N1_11 
REMARK    4  A    between atoms: N1_11  and  C9_12 
REMARK    5  A    between atoms: C9_12  and  C10_13 
REMARK    6  A    between atoms: C10_13  and  N2_14 
ROOT
HETATM    1  C6  UNK   900       1.601  -0.159  -0.110  1.00  0.00     0.086 C 
HETATM    2  C7  UNK   900      -0.072  -0.241  -0.488  1.00  0.00     0.119 C 
HETATM    3  C15 UNK   900       0.046  -1.804  -0.778  1.00  0.00    -0.008 C 
HETATM    4  C16 UNK   900      -0.829  -2.682  -0.270  1.00  0.00    -0.004 C 
HETATM    5  C17 UNK   900      -0.467  -4.028  -0.352  1.00  0.00    -0.000 C 
HETATM    6  C18 UNK   900       0.299  -4.411  -1.448  1.00  0.00     0.000 C 
HETATM    7  C19 UNK   900       0.980  -3.479  -2.225  1.00  0.00     0.004 C 
HETATM    8  C20 UNK   900       1.007  -2.205  -1.676  1.00  0.00     0.047 C 
HETATM    9  C21 UNK   900       1.821  -1.124  -2.257  1.00  0.00     0.236 C 
HETATM   10  O3  UNK   900       2.203  -1.213  -3.452  1.00  0.00    -0.274 OA
HETATM   11  N3  UNK   900       1.927   0.164  -1.612  1.00  0.00    -0.218 NA
HETATM   12  C22 UNK   900       1.241   1.222  -2.296  1.00  0.00     0.097 C 
ENDROOT
BRANCH   2  13
HETATM   13  C8  UNK   900      -0.494  -0.397   1.042  1.00  0.00     0.256 C 
HETATM   14  O2  UNK   900       0.044  -1.261   1.728  1.00  0.00    -0.270 OA
HETATM   15  N1  UNK   900      -1.800   0.099   1.348  1.00  0.00    -0.236 NA
BRANCH  15  16
HETATM   16  C9  UNK   900      -2.691  -0.638   2.213  1.00  0.00     0.153 C 
BRANCH  16  17
HETATM   17  C10 UNK   900      -3.930  -1.129   1.514  1.00  0.00     0.133 C 
BRANCH  17  18
HETATM   18  N2  UNK   900      -4.447  -0.126   0.594  1.00  0.00    -0.323 N 
HETATM   19  C11 UNK   900      -4.885   1.090   0.955  1.00  0.00     0.076 C 
HETATM   20  C12 UNK   900      -5.922   1.489   0.123  1.00  0.00     0.020 C 
HETATM   21  C13 UNK   900      -6.013   0.505  -0.832  1.00  0.00     0.020 C 
HETATM   22  C14 UNK   900      -4.990  -0.374  -0.604  1.00  0.00     0.076 C 
ENDBRANCH  17  18
ENDBRANCH  16  17
ENDBRANCH  15  16
ENDBRANCH   2  13
BRANCH   1  23
HETATM   23  C5  UNK   900       1.546   1.336   0.481  1.00  0.00     0.060 C 
HETATM   24  C4  UNK   900       2.063   2.373  -0.200  1.00  0.00    -0.019 C 
HETATM   25  C3  UNK   900       2.654   3.474   0.403  1.00  0.00     0.020 C 
HETATM   26  C2  UNK   900       3.462   3.168   1.490  1.00  0.00     0.093 C 
HETATM   27  C24 UNK   900       2.999   2.127   2.285  1.00  0.00     0.020 C 
HETATM   28  C23 UNK   900       2.039   1.252   1.787  1.00  0.00    -0.019 C 
BRANCH  26  29
HETATM   29  O1  UNK   900       4.731   3.731   1.662  1.00  0.00    -0.328 OA
HETATM   30  C1  UNK   900       5.877   3.238   0.975  1.00  0.00     0.181 C 
ENDBRANCH  26  29
ENDBRANCH   1  23
TORSDOF 6
