REMARK  5 active torsions:
REMARK  status: ('A' for Active; 'I' for Inactive)
REMARK    1  A    between atoms: O1_2  and  C2_3 
REMARK    2  A    between atoms: N1_11  and  C10_12 
REMARK    3  A    between atoms: C10_12  and  C11_13 
REMARK       I    between atoms: C11_13  and  N2_15 
REMARK    4  A    between atoms: N2_15  and  C12_16 
REMARK    5  A    between atoms: N3_24  and  C20_25 
ROOT
HETATM    1  C11 UNK   900      -0.339  -1.697  -0.010  1.00  0.00     0.279 C 
HETATM    2  O2  UNK   900      -0.761  -1.111   1.024  1.00  0.00    -0.268 OA
HETATM    3  N2  UNK   900       0.541  -0.932  -0.840  1.00  0.00    -0.210 NA
ENDROOT
BRANCH   1   4
HETATM    4  C10 UNK   900      -1.289  -2.604  -0.727  1.00  0.00     0.197 C 
BRANCH   4   5
HETATM    5  N1  UNK   900      -2.658  -2.153  -0.483  1.00  0.00    -0.318 N 
HETATM    6  C6  UNK   900      -3.147  -0.914  -0.737  1.00  0.00     0.062 A 
HETATM    7  C5  UNK   900      -2.616   0.144  -1.445  1.00  0.00     0.017 C 
HETATM    8  C7  UNK   900      -4.264  -0.675   0.042  1.00  0.00     0.040 A 
HETATM    9  C4  UNK   900      -2.884   1.470  -1.128  1.00  0.00     0.004 C 
HETATM   10  C3  UNK   900      -3.987   1.681  -0.313  1.00  0.00     0.024 C 
HETATM   11  C2  UNK   900      -4.662   0.630   0.284  1.00  0.00     0.096 C 
HETATM   12  C8  UNK   900      -4.392  -1.796   0.846  1.00  0.00     0.022 A 
HETATM   13  C9  UNK   900      -3.382  -2.673   0.538  1.00  0.00     0.076 A 
BRANCH  11  14
HETATM   14  O1  UNK   900      -5.643   0.877   1.225  1.00  0.00    -0.328 OA
HETATM   15  C1  UNK   900      -6.303   2.127   1.319  1.00  0.00     0.181 C 
ENDBRANCH  11  14
ENDBRANCH   4   5
ENDBRANCH   1   4
BRANCH   3  16
HETATM   16  C12 UNK   900       1.427   0.054  -0.314  1.00  0.00     0.086 C 
HETATM   17  C13 UNK   900       0.916   1.240   0.201  1.00  0.00     0.019 C 
HETATM   18  C14 UNK   900       1.718   2.369   0.279  1.00  0.00     0.003 C 
HETATM   19  C15 UNK   900       3.086   2.132   0.310  1.00  0.00     0.017 C 
HETATM   20  C16 UNK   900       3.645   0.946  -0.111  1.00  0.00     0.061 C 
HETATM   21  C17 UNK   900       2.779   0.005  -0.629  1.00  0.00     0.035 C 
HETATM   22  N3  UNK   900       4.867   0.387   0.040  1.00  0.00    -0.328 N 
HETATM   23  C18 UNK   900       3.572  -1.078  -0.975  1.00  0.00     0.022 C 
HETATM   24  C19 UNK   900       4.832  -0.880  -0.427  1.00  0.00     0.076 C 
BRANCH  22  25
HETATM   25  C20 UNK   900       5.923   1.049   0.798  1.00  0.00     0.086 C 
HETATM   26  C21 UNK   900       5.753   0.762   2.268  1.00  0.00     0.025 C 
HETATM   27  C22 UNK   900       7.271   0.639   0.275  1.00  0.00     0.025 C 
ENDBRANCH  22  25
ENDBRANCH   3  16
TORSDOF 5
