REMARK  7 active torsions:
REMARK  status: ('A' for Active; 'I' for Inactive)
REMARK    1  A    between atoms: O1_2  and  C2_3 
REMARK    2  A    between atoms: N1_10  and  C9_11 
REMARK    3  A    between atoms: C9_11  and  C10_12 
REMARK    4  A    between atoms: C10_12  and  N2_13 
REMARK       I    between atoms: N2_13  and  C11_14 
REMARK    5  A    between atoms: C11_14  and  C12_16 
REMARK    6  A    between atoms: C12_16  and  N3_17 
REMARK    7  A    between atoms: C14_19  and  C15_20 
ROOT
HETATM    1  N2  UNK   900       0.044   1.311  -0.446  1.00  0.00    -0.234 NA
HETATM    2  C11 UNK   900      -1.360   1.033  -0.526  1.00  0.00     0.275 C 
HETATM    3  O2  UNK   900      -1.697   0.252  -1.462  1.00  0.00    -0.268 OA
ENDROOT
BRANCH   2   4
HETATM    4  C12 UNK   900      -2.362   1.827   0.252  1.00  0.00     0.196 C 
BRANCH   4   5
HETATM    5  N3  UNK   900      -3.565   1.027   0.466  1.00  0.00    -0.318 N 
HETATM    6  C13 UNK   900      -4.842   1.479   0.534  1.00  0.00     0.079 C 
HETATM    7  C14 UNK   900      -5.724   0.423   0.335  1.00  0.00     0.053 C 
HETATM    8  C17 UNK   900      -4.964  -0.730   0.491  1.00  0.00     0.020 C 
HETATM    9  C18 UNK   900      -5.108  -2.024   0.004  1.00  0.00     0.002 C 
HETATM   10  C22 UNK   900      -3.650  -0.309   0.657  1.00  0.00     0.060 C 
HETATM   11  C19 UNK   900      -4.075  -2.950   0.082  1.00  0.00     0.000 C 
HETATM   12  C20 UNK   900      -2.959  -2.573   0.817  1.00  0.00     0.002 C 
HETATM   13  C21 UNK   900      -2.708  -1.231   1.075  1.00  0.00     0.017 C 
BRANCH   7  14
HETATM   14  C15 UNK   900      -6.994   0.494  -0.398  1.00  0.00     0.175 C 
HETATM   15  C16 UNK   900      -7.552   1.840  -0.741  1.00  0.00     0.077 C 
HETATM   16  O3  UNK   900      -7.403  -0.462  -1.122  1.00  0.00    -0.291 OA
ENDBRANCH   7  14
ENDBRANCH   4   5
ENDBRANCH   2   4
BRANCH   1  17
HETATM   17  C10 UNK   900       0.964   0.177  -0.467  1.00  0.00     0.153 C 
BRANCH  17  18
HETATM   18  C9  UNK   900       1.932   0.409   0.687  1.00  0.00     0.133 C 
BRANCH  18  19
HETATM   19  N1  UNK   900       3.195   0.862   0.123  1.00  0.00    -0.324 N 
HETATM   20  C5  UNK   900       4.409   0.425   0.530  1.00  0.00     0.060 C 
HETATM   21  C4  UNK   900       4.865  -0.361   1.573  1.00  0.00     0.019 C 
HETATM   22  C6  UNK   900       5.267   0.690  -0.530  1.00  0.00     0.019 C 
HETATM   23  C3  UNK   900       6.112  -0.972   1.521  1.00  0.00     0.026 C 
HETATM   24  C2  UNK   900       6.724  -1.001   0.274  1.00  0.00     0.094 C 
HETATM   25  C23 UNK   900       6.534   0.135  -0.503  1.00  0.00     0.026 C 
HETATM   26  C7  UNK   900       4.681   1.774  -1.170  1.00  0.00     0.020 C 
HETATM   27  C8  UNK   900       3.315   1.574  -1.016  1.00  0.00     0.076 C 
BRANCH  24  28
HETATM   28  O1  UNK   900       7.832  -1.827   0.086  1.00  0.00    -0.328 OA
HETATM   29  C1  UNK   900       9.087  -1.293   0.428  1.00  0.00     0.181 C 
ENDBRANCH  24  28
ENDBRANCH  18  19
ENDBRANCH  17  18
ENDBRANCH   1  17
TORSDOF 7
