REMARK  4 active torsions:
REMARK  status: ('A' for Active; 'I' for Inactive)
REMARK    1  A    between atoms: O1_2  and  C2_3 
REMARK    2  A    between atoms: C5_6  and  N1_7 
REMARK       I    between atoms: N1_7  and  C6_8 
REMARK    3  A    between atoms: C6_8  and  C7_10 
REMARK    4  A    between atoms: N2_12  and  C9_13 
ROOT
HETATM    1  C7  UNK   900      -0.975   0.098   0.198  1.00  0.00     0.075 C 
HETATM    2  C8  UNK   900      -1.614   1.313   0.408  1.00  0.00     0.083 C 
HETATM    3  N2  UNK   900      -2.941   1.472   0.252  1.00  0.00    -0.296 N 
HETATM    4  C12 UNK   900      -3.710   0.372   0.062  1.00  0.00     0.261 C 
HETATM    5  O3  UNK   900      -4.934   0.522  -0.235  1.00  0.00    -0.267 OA
HETATM    6  C13 UNK   900      -3.141  -0.872  -0.063  1.00  0.00     0.056 C 
HETATM    7  C14 UNK   900      -3.940  -1.951  -0.326  1.00  0.00     0.005 C 
HETATM    8  C15 UNK   900      -3.409  -3.170  -0.648  1.00  0.00     0.000 C 
HETATM    9  C16 UNK   900      -2.034  -3.289  -0.764  1.00  0.00     0.000 C 
HETATM   10  C17 UNK   900      -1.238  -2.235  -0.385  1.00  0.00     0.000 C 
HETATM   11  C18 UNK   900      -1.776  -0.994  -0.112  1.00  0.00     0.011 C 
ENDROOT
BRANCH   1  12
HETATM   12  C6  UNK   900       0.461   0.032  -0.075  1.00  0.00     0.281 C 
HETATM   13  N1  UNK   900       1.309  -0.665   0.840  1.00  0.00    -0.206 NA
HETATM   14  O2  UNK   900       0.987   0.776  -0.954  1.00  0.00    -0.265 OA
BRANCH  13  15
HETATM   15  C5  UNK   900       2.702  -0.813   0.541  1.00  0.00     0.104 C 
HETATM   16  C4  UNK   900       3.162  -0.899  -0.767  1.00  0.00     0.025 C 
HETATM   17  C3  UNK   900       4.470  -0.541  -1.067  1.00  0.00     0.046 C 
HETATM   18  C2  UNK   900       5.188   0.161  -0.112  1.00  0.00     0.178 C 
HETATM   19  N3  UNK   900       4.911  -0.140   1.175  1.00  0.00    -0.219 NA
HETATM   20  C19 UNK   900       3.654  -0.484   1.493  1.00  0.00     0.120 C 
BRANCH  18  21
HETATM   21  O1  UNK   900       6.480   0.580  -0.393  1.00  0.00    -0.312 OA
HETATM   22  C1  UNK   900       6.901   0.998  -1.677  1.00  0.00     0.183 C 
ENDBRANCH  18  21
ENDBRANCH  13  15
ENDBRANCH   1  12
BRANCH   3  23
HETATM   23  C9  UNK   900      -3.625   2.732   0.361  1.00  0.00     0.089 C 
HETATM   24  C10 UNK   900      -3.761   3.221   1.775  1.00  0.00     0.025 C 
HETATM   25  C11 UNK   900      -3.125   3.778  -0.592  1.00  0.00     0.025 C 
ENDBRANCH   3  23
TORSDOF 4
