MODEL 1
REMARK VINA RESULT:      -5.9      0.000      0.000
REMARK  6 active torsions:
REMARK  status: ('A' for Active; 'I' for Inactive)
REMARK    1  A    between atoms: C2_2  and  N1_3 
REMARK    2  A    between atoms: N1_3  and  C3_4 
REMARK    3  A    between atoms: N1_3  and  C5_6 
REMARK    4  A    between atoms: C5_6  and  C6_7 
REMARK    5  A    between atoms: C6_7  and  C7_8 
REMARK    6  A    between atoms: C9_10  and  C10_11 
ROOT
HETATM    1  C6  UNK   900      15.820  49.943   7.750  1.00  0.00     0.085 C 
ENDROOT
BRANCH   1   2
HETATM    2  C5  UNK   900      15.054  50.614   8.837  1.00  0.00     0.251 C 
HETATM    3  C13 UNK   900      15.007  49.753  10.090  1.00  0.00     0.176 C 
HETATM    4  O3  UNK   900      13.660  50.078  10.298  1.00  0.00    -0.350 OA
HETATM    5  C14 UNK   900      13.587  50.351   8.925  1.00  0.00     0.176 C 
BRANCH   2   6
HETATM    6  N1  UNK   900      15.501  51.959   9.086  1.00  0.00     0.138 N 
BRANCH   6   7
HETATM    7  C2  UNK   900      16.014  52.063  10.438  1.00  0.00     0.250 C 
HETATM    8  C1  UNK   900      17.264  52.919  10.457  1.00  0.00     0.037 C 
ENDBRANCH   6   7
BRANCH   6   9
HETATM    9  C3  UNK   900      14.483  52.937   8.792  1.00  0.00     0.250 C 
HETATM   10  C4  UNK   900      14.855  53.696   7.529  1.00  0.00     0.037 C 
ENDBRANCH   6   9
ENDBRANCH   2   6
ENDBRANCH   1   2
BRANCH   1  11
HETATM   11  C7  UNK   900      16.846  48.978   8.246  1.00  0.00     0.090 C 
HETATM   12  C8  UNK   900      18.104  49.453   8.601  1.00  0.00     0.042 C 
HETATM   13  C9  UNK   900      18.953  48.374   8.596  1.00  0.00     0.131 C 
HETATM   14  O2  UNK   900      18.203  47.329   8.380  1.00  0.00    -0.213 OA
HETATM   15  N2  UNK   900      17.068  47.705   7.848  1.00  0.00    -0.131 NA
BRANCH  13  16
HETATM   16  C10 UNK   900      20.374  48.454   9.024  1.00  0.00     0.168 C 
HETATM   17  C11 UNK   900      20.674  47.368  10.019  1.00  0.00     0.040 C 
HETATM   18  C12 UNK   900      20.599  49.820   9.611  1.00  0.00     0.040 C 
HETATM   19  O1  UNK   900      21.188  48.344   7.905  1.00  0.00    -0.219 OA
ENDBRANCH  13  16
ENDBRANCH   1  11
TORSDOF 6
ENDMDL
MODEL 2
REMARK VINA RESULT:      -5.7      1.794      2.927
REMARK  6 active torsions:
REMARK  status: ('A' for Active; 'I' for Inactive)
REMARK    1  A    between atoms: C2_2  and  N1_3 
REMARK    2  A    between atoms: N1_3  and  C3_4 
REMARK    3  A    between atoms: N1_3  and  C5_6 
REMARK    4  A    between atoms: C5_6  and  C6_7 
REMARK    5  A    between atoms: C6_7  and  C7_8 
REMARK    6  A    between atoms: C9_10  and  C10_11 
ROOT
HETATM    1  C6  UNK   900      17.030  51.200   7.254  1.00  0.00     0.085 C 
ENDROOT
BRANCH   1   2
HETATM    2  C5  UNK   900      16.379  52.181   8.165  1.00  0.00     0.251 C 
HETATM    3  C13 UNK   900      15.511  53.161   7.389  1.00  0.00     0.176 C 
HETATM    4  O3  UNK   900      15.959  54.229   8.180  1.00  0.00    -0.350 OA
HETATM    5  C14 UNK   900      17.098  53.458   8.449  1.00  0.00     0.176 C 
BRANCH   2   6
HETATM    6  N1  UNK   900      15.689  51.552   9.260  1.00  0.00     0.138 N 
BRANCH   6   7
HETATM    7  C2  UNK   900      14.260  51.573   9.017  1.00  0.00     0.250 C 
HETATM    8  C1  UNK   900      13.658  50.218   9.322  1.00  0.00     0.037 C 
ENDBRANCH   6   7
BRANCH   6   9
HETATM    9  C3  UNK   900      16.052  52.121  10.534  1.00  0.00     0.250 C 
HETATM   10  C4  UNK   900      16.829  51.098  11.346  1.00  0.00     0.037 C 
ENDBRANCH   6   9
ENDBRANCH   2   6
ENDBRANCH   1   2
BRANCH   1  11
HETATM   11  C7  UNK   900      17.549  49.986   7.952  1.00  0.00     0.090 C 
HETATM   12  C8  UNK   900      18.727  50.079   8.684  1.00  0.00     0.042 C 
HETATM   13  C9  UNK   900      19.199  48.799   8.845  1.00  0.00     0.131 C 
HETATM   14  O2  UNK   900      18.282  48.015   8.350  1.00  0.00    -0.213 OA
HETATM   15  N2  UNK   900      17.507  48.697   7.544  1.00  0.00    -0.131 NA
BRANCH  13  16
HETATM   16  C10 UNK   900      20.393  48.468   9.664  1.00  0.00     0.168 C 
HETATM   17  C11 UNK   900      21.640  48.944   8.974  1.00  0.00     0.040 C 
HETATM   18  C12 UNK   900      20.408  46.978   9.868  1.00  0.00     0.040 C 
HETATM   19  O1  UNK   900      20.259  49.056  10.915  1.00  0.00    -0.219 OA
ENDBRANCH  13  16
ENDBRANCH   1  11
TORSDOF 6
ENDMDL
MODEL 3
REMARK VINA RESULT:      -5.7      2.427      5.704
REMARK  6 active torsions:
REMARK  status: ('A' for Active; 'I' for Inactive)
REMARK    1  A    between atoms: C2_2  and  N1_3 
REMARK    2  A    between atoms: N1_3  and  C3_4 
REMARK    3  A    between atoms: N1_3  and  C5_6 
REMARK    4  A    between atoms: C5_6  and  C6_7 
REMARK    5  A    between atoms: C6_7  and  C7_8 
REMARK    6  A    between atoms: C9_10  and  C10_11 
ROOT
HETATM    1  C6  UNK   900      16.804  49.300   9.805  1.00  0.00     0.085 C 
ENDROOT
BRANCH   1   2
HETATM    2  C5  UNK   900      17.966  49.840  10.564  1.00  0.00     0.251 C 
HETATM    3  C13 UNK   900      17.900  49.442  12.031  1.00  0.00     0.176 C 
HETATM    4  O3  UNK   900      18.317  50.720  12.427  1.00  0.00    -0.350 OA
HETATM    5  C14 UNK   900      17.824  51.183  11.199  1.00  0.00     0.176 C 
BRANCH   2   6
HETATM    6  N1  UNK   900      19.228  49.530   9.946  1.00  0.00     0.138 N 
BRANCH   6   7
HETATM    7  C2  UNK   900      19.329  50.208   8.668  1.00  0.00     0.250 C 
HETATM    8  C1  UNK   900      20.361  51.313   8.744  1.00  0.00     0.037 C 
ENDBRANCH   6   7
BRANCH   6   9
HETATM    9  C3  UNK   900      19.457  48.109   9.850  1.00  0.00     0.250 C 
HETATM   10  C4  UNK   900      20.944  47.823   9.964  1.00  0.00     0.037 C 
ENDBRANCH   6   9
ENDBRANCH   2   6
ENDBRANCH   1   2
BRANCH   1  11
HETATM   11  C7  UNK   900      15.777  50.329   9.467  1.00  0.00     0.090 C 
HETATM   12  C8  UNK   900      16.119  51.369   8.609  1.00  0.00     0.042 C 
HETATM   13  C9  UNK   900      15.195  52.366   8.803  1.00  0.00     0.131 C 
HETATM   14  O2  UNK   900      14.306  51.876   9.622  1.00  0.00    -0.213 OA
HETATM   15  N2  UNK   900      14.812  50.850  10.259  1.00  0.00    -0.131 NA
BRANCH  13  16
HETATM   16  C10 UNK   900      15.159  53.612   7.994  1.00  0.00     0.168 C 
HETATM   17  C11 UNK   900      15.929  54.700   8.690  1.00  0.00     0.040 C 
HETATM   18  C12 UNK   900      13.716  53.991   7.804  1.00  0.00     0.040 C 
HETATM   19  O1  UNK   900      15.689  53.350   6.738  1.00  0.00    -0.219 OA
ENDBRANCH  13  16
ENDBRANCH   1  11
TORSDOF 6
ENDMDL
MODEL 4
REMARK VINA RESULT:      -5.6      1.951      5.466
REMARK  6 active torsions:
REMARK  status: ('A' for Active; 'I' for Inactive)
REMARK    1  A    between atoms: C2_2  and  N1_3 
REMARK    2  A    between atoms: N1_3  and  C3_4 
REMARK    3  A    between atoms: N1_3  and  C5_6 
REMARK    4  A    between atoms: C5_6  and  C6_7 
REMARK    5  A    between atoms: C6_7  and  C7_8 
REMARK    6  A    between atoms: C9_10  and  C10_11 
ROOT
HETATM    1  C6  UNK   900      18.703  49.180   7.356  1.00  0.00     0.085 C 
ENDROOT
BRANCH   1   2
HETATM    2  C5  UNK   900      19.585  49.060   8.549  1.00  0.00     0.251 C 
HETATM    3  C13 UNK   900      20.977  48.583   8.160  1.00  0.00     0.176 C 
HETATM    4  O3  UNK   900      21.029  47.733   9.273  1.00  0.00    -0.350 OA
HETATM    5  C14 UNK   900      19.627  47.748   9.261  1.00  0.00     0.176 C 
BRANCH   2   6
HETATM    6  N1  UNK   900      19.597  50.251   9.356  1.00  0.00     0.138 N 
BRANCH   6   7
HETATM    7  C2  UNK   900      20.751  51.062   9.020  1.00  0.00     0.250 C 
HETATM    8  C1  UNK   900      20.307  52.417   8.510  1.00  0.00     0.037 C 
ENDBRANCH   6   7
BRANCH   6   9
HETATM    9  C3  UNK   900      19.504  49.959  10.765  1.00  0.00     0.250 C 
HETATM   10  C4  UNK   900      18.360  50.748  11.376  1.00  0.00     0.037 C 
ENDBRANCH   6   9
ENDBRANCH   2   6
ENDBRANCH   1   2
BRANCH   1  11
HETATM   11  C7  UNK   900      17.313  49.621   7.679  1.00  0.00     0.090 C 
HETATM   12  C8  UNK   900      17.008  50.977   7.635  1.00  0.00     0.042 C 
HETATM   13  C9  UNK   900      15.858  51.151   8.365  1.00  0.00     0.131 C 
HETATM   14  O2  UNK   900      15.459  49.953   8.694  1.00  0.00    -0.213 OA
HETATM   15  N2  UNK   900      16.459  49.114   8.596  1.00  0.00    -0.131 NA
BRANCH  13  16
HETATM   16  C10 UNK   900      15.150  52.452   8.473  1.00  0.00     0.168 C 
HETATM   17  C11 UNK   900      13.686  52.223   8.727  1.00  0.00     0.040 C 
HETATM   18  C12 UNK   900      15.378  53.204   7.191  1.00  0.00     0.040 C 
HETATM   19  O1  UNK   900      15.724  53.194   9.497  1.00  0.00    -0.219 OA
ENDBRANCH  13  16
ENDBRANCH   1  11
TORSDOF 6
ENDMDL
MODEL 5
REMARK VINA RESULT:      -5.6     14.578     17.819
REMARK  6 active torsions:
REMARK  status: ('A' for Active; 'I' for Inactive)
REMARK    1  A    between atoms: C2_2  and  N1_3 
REMARK    2  A    between atoms: N1_3  and  C3_4 
REMARK    3  A    between atoms: N1_3  and  C5_6 
REMARK    4  A    between atoms: C5_6  and  C6_7 
REMARK    5  A    between atoms: C6_7  and  C7_8 
REMARK    6  A    between atoms: C9_10  and  C10_11 
ROOT
HETATM    1  C6  UNK   900       2.509  44.206  12.870  1.00  0.00     0.085 C 
ENDROOT
BRANCH   1   2
HETATM    2  C5  UNK   900       3.326  44.797  11.775  1.00  0.00     0.251 C 
HETATM    3  C13 UNK   900       3.197  46.312  11.746  1.00  0.00     0.176 C 
HETATM    4  O3  UNK   900       3.128  46.310  10.346  1.00  0.00    -0.350 OA
HETATM    5  C14 UNK   900       2.681  44.984  10.442  1.00  0.00     0.176 C 
BRANCH   2   6
HETATM    6  N1  UNK   900       4.691  44.342  11.790  1.00  0.00     0.138 N 
BRANCH   6   7
HETATM    7  C2  UNK   900       4.791  43.066  11.109  1.00  0.00     0.250 C 
HETATM    8  C1  UNK   900       5.740  43.175   9.933  1.00  0.00     0.037 C 
ENDBRANCH   6   7
BRANCH   6   9
HETATM    9  C3  UNK   900       5.244  44.315  13.122  1.00  0.00     0.250 C 
HETATM   10  C4  UNK   900       5.901  42.968  13.374  1.00  0.00     0.037 C 
ENDBRANCH   6   9
ENDBRANCH   2   6
ENDBRANCH   1   2
BRANCH   1  11
HETATM   11  C7  UNK   900       1.267  43.526  12.393  1.00  0.00     0.090 C 
HETATM   12  C8  UNK   900       0.035  43.963  12.866  1.00  0.00     0.042 C 
HETATM   13  C9  UNK   900      -0.862  42.947  12.639  1.00  0.00     0.131 C 
HETATM   14  O2  UNK   900      -0.212  42.041  11.962  1.00  0.00    -0.213 OA
HETATM   15  N2  UNK   900       1.077  42.216  12.115  1.00  0.00    -0.131 NA
BRANCH  13  16
HETATM   16  C10 UNK   900      -2.316  43.067  12.914  1.00  0.00     0.168 C 
HETATM   17  C11 UNK   900      -2.556  43.137  14.397  1.00  0.00     0.040 C 
HETATM   18  C12 UNK   900      -2.997  41.876  12.299  1.00  0.00     0.040 C 
HETATM   19  O1  UNK   900      -2.804  44.200  12.276  1.00  0.00    -0.219 OA
ENDBRANCH  13  16
ENDBRANCH   1  11
TORSDOF 6
ENDMDL
MODEL 6
REMARK VINA RESULT:      -5.5      2.731      4.225
REMARK  6 active torsions:
REMARK  status: ('A' for Active; 'I' for Inactive)
REMARK    1  A    between atoms: C2_2  and  N1_3 
REMARK    2  A    between atoms: N1_3  and  C3_4 
REMARK    3  A    between atoms: N1_3  and  C5_6 
REMARK    4  A    between atoms: C5_6  and  C6_7 
REMARK    5  A    between atoms: C6_7  and  C7_8 
REMARK    6  A    between atoms: C9_10  and  C10_11 
ROOT
HETATM    1  C6  UNK   900      16.481  50.551   8.322  1.00  0.00     0.085 C 
ENDROOT
BRANCH   1   2
HETATM    2  C5  UNK   900      16.694  51.602   7.290  1.00  0.00     0.251 C 
HETATM    3  C13 UNK   900      16.147  51.168   5.938  1.00  0.00     0.176 C 
HETATM    4  O3  UNK   900      17.266  51.700   5.282  1.00  0.00    -0.350 OA
HETATM    5  C14 UNK   900      17.956  51.557   6.494  1.00  0.00     0.176 C 
BRANCH   2   6
HETATM    6  N1  UNK   900      16.222  52.896   7.707  1.00  0.00     0.138 N 
BRANCH   6   7
HETATM    7  C2  UNK   900      17.209  53.527   8.561  1.00  0.00     0.250 C 
HETATM    8  C1  UNK   900      16.745  53.502  10.002  1.00  0.00     0.037 C 
ENDBRANCH   6   7
BRANCH   6   9
HETATM    9  C3  UNK   900      14.913  52.833   8.308  1.00  0.00     0.250 C 
HETATM   10  C4  UNK   900      14.031  53.924   7.724  1.00  0.00     0.037 C 
ENDBRANCH   6   9
ENDBRANCH   2   6
ENDBRANCH   1   2
BRANCH   1  11
HETATM   11  C7  UNK   900      16.437  49.165   7.767  1.00  0.00     0.090 C 
HETATM   12  C8  UNK   900      15.319  48.375   8.010  1.00  0.00     0.042 C 
HETATM   13  C9  UNK   900      15.695  47.073   7.789  1.00  0.00     0.131 C 
HETATM   14  O2  UNK   900      16.912  47.126   7.323  1.00  0.00    -0.213 OA
HETATM   15  N2  UNK   900      17.451  48.280   7.628  1.00  0.00    -0.131 NA
BRANCH  13  16
HETATM   16  C10 UNK   900      14.748  45.930   7.847  1.00  0.00     0.168 C 
HETATM   17  C11 UNK   900      15.506  44.637   7.958  1.00  0.00     0.040 C 
HETATM   18  C12 UNK   900      13.905  45.972   6.602  1.00  0.00     0.040 C 
HETATM   19  O1  UNK   900      13.897  46.104   8.930  1.00  0.00    -0.219 OA
ENDBRANCH  13  16
ENDBRANCH   1  11
TORSDOF 6
ENDMDL
MODEL 7
REMARK VINA RESULT:      -5.5     16.188     17.529
REMARK  6 active torsions:
REMARK  status: ('A' for Active; 'I' for Inactive)
REMARK    1  A    between atoms: C2_2  and  N1_3 
REMARK    2  A    between atoms: N1_3  and  C3_4 
REMARK    3  A    between atoms: N1_3  and  C5_6 
REMARK    4  A    between atoms: C5_6  and  C6_7 
REMARK    5  A    between atoms: C6_7  and  C7_8 
REMARK    6  A    between atoms: C9_10  and  C10_11 
ROOT
HETATM    1  C6  UNK   900      11.429  34.998   5.517  1.00  0.00     0.085 C 
ENDROOT
BRANCH   1   2
HETATM    2  C5  UNK   900      10.715  36.277   5.781  1.00  0.00     0.251 C 
HETATM    3  C13 UNK   900      11.042  36.816   7.166  1.00  0.00     0.176 C 
HETATM    4  O3  UNK   900       9.704  37.179   7.373  1.00  0.00    -0.350 OA
HETATM    5  C14 UNK   900       9.367  36.207   6.420  1.00  0.00     0.176 C 
BRANCH   2   6
HETATM    6  N1  UNK   900      10.901  37.246   4.734  1.00  0.00     0.138 N 
BRANCH   6   7
HETATM    7  C2  UNK   900      11.844  38.259   5.165  1.00  0.00     0.250 C 
HETATM    8  C1  UNK   900      13.068  38.247   4.273  1.00  0.00     0.037 C 
ENDBRANCH   6   7
BRANCH   6   9
HETATM    9  C3  UNK   900       9.652  37.798   4.271  1.00  0.00     0.250 C 
HETATM   10  C4  UNK   900       9.647  39.302   4.489  1.00  0.00     0.037 C 
ENDBRANCH   6   9
ENDBRANCH   2   6
ENDBRANCH   1   2
BRANCH   1  11
HETATM   11  C7  UNK   900      10.518  33.836   5.294  1.00  0.00     0.090 C 
HETATM   12  C8  UNK   900      10.699  32.682   6.049  1.00  0.00     0.042 C 
HETATM   13  C9  UNK   900      10.062  31.665   5.381  1.00  0.00     0.131 C 
HETATM   14  O2  UNK   900       9.446  32.226   4.378  1.00  0.00    -0.213 OA
HETATM   15  N2  UNK   900       9.978  33.398   4.134  1.00  0.00    -0.131 NA
BRANCH  13  16
HETATM   16  C10 UNK   900       9.940  30.286   5.921  1.00  0.00     0.168 C 
HETATM   17  C11 UNK   900      10.104  30.301   7.415  1.00  0.00     0.040 C 
HETATM   18  C12 UNK   900      10.993  29.442   5.258  1.00  0.00     0.040 C 
HETATM   19  O1  UNK   900       8.704  29.768   5.559  1.00  0.00    -0.219 OA
ENDBRANCH  13  16
ENDBRANCH   1  11
TORSDOF 6
ENDMDL
MODEL 8
REMARK VINA RESULT:      -5.5      2.656      5.570
REMARK  6 active torsions:
REMARK  status: ('A' for Active; 'I' for Inactive)
REMARK    1  A    between atoms: C2_2  and  N1_3 
REMARK    2  A    between atoms: N1_3  and  C3_4 
REMARK    3  A    between atoms: N1_3  and  C5_6 
REMARK    4  A    between atoms: C5_6  and  C6_7 
REMARK    5  A    between atoms: C6_7  and  C7_8 
REMARK    6  A    between atoms: C9_10  and  C10_11 
ROOT
HETATM    1  C6  UNK   900      14.617  51.516   8.400  1.00  0.00     0.085 C 
ENDROOT
BRANCH   1   2
HETATM    2  C5  UNK   900      16.106  51.544   8.369  1.00  0.00     0.251 C 
HETATM    3  C13 UNK   900      16.638  51.095   7.016  1.00  0.00     0.176 C 
HETATM    4  O3  UNK   900      17.656  50.353   7.631  1.00  0.00    -0.350 OA
HETATM    5  C14 UNK   900      16.838  50.306   8.768  1.00  0.00     0.176 C 
BRANCH   2   6
HETATM    6  N1  UNK   900      16.648  52.804   8.805  1.00  0.00     0.138 N 
BRANCH   6   7
HETATM    7  C2  UNK   900      16.602  52.883  10.252  1.00  0.00     0.250 C 
HETATM    8  C1  UNK   900      18.006  52.913  10.818  1.00  0.00     0.037 C 
ENDBRANCH   6   7
BRANCH   6   9
HETATM    9  C3  UNK   900      16.015  53.926   8.158  1.00  0.00     0.250 C 
HETATM   10  C4  UNK   900      15.484  54.887   9.208  1.00  0.00     0.037 C 
ENDBRANCH   6   9
ENDBRANCH   2   6
ENDBRANCH   1   2
BRANCH   1  11
HETATM   11  C7  UNK   900      14.055  50.372   9.178  1.00  0.00     0.090 C 
HETATM   12  C8  UNK   900      13.041  49.605   8.615  1.00  0.00     0.042 C 
HETATM   13  C9  UNK   900      12.424  48.940   9.645  1.00  0.00     0.131 C 
HETATM   14  O2  UNK   900      13.124  49.207  10.713  1.00  0.00    -0.213 OA
HETATM   15  N2  UNK   900      13.842  50.283  10.511  1.00  0.00    -0.131 NA
BRANCH  13  16
HETATM   16  C10 UNK   900      11.349  47.935   9.440  1.00  0.00     0.168 C 
HETATM   17  C11 UNK   900      11.472  46.834  10.456  1.00  0.00     0.040 C 
HETATM   18  C12 UNK   900      11.478  47.410   8.037  1.00  0.00     0.040 C 
HETATM   19  O1  UNK   900      10.117  48.568   9.535  1.00  0.00    -0.219 OA
ENDBRANCH  13  16
ENDBRANCH   1  11
TORSDOF 6
ENDMDL
MODEL 9
REMARK VINA RESULT:      -5.5      2.374      3.771
REMARK  6 active torsions:
REMARK  status: ('A' for Active; 'I' for Inactive)
REMARK    1  A    between atoms: C2_2  and  N1_3 
REMARK    2  A    between atoms: N1_3  and  C3_4 
REMARK    3  A    between atoms: N1_3  and  C5_6 
REMARK    4  A    between atoms: C5_6  and  C6_7 
REMARK    5  A    between atoms: C6_7  and  C7_8 
REMARK    6  A    between atoms: C9_10  and  C10_11 
ROOT
HETATM    1  C6  UNK   900      17.141  50.610  10.539  1.00  0.00     0.085 C 
ENDROOT
BRANCH   1   2
HETATM    2  C5  UNK   900      17.369  51.879   9.794  1.00  0.00     0.251 C 
HETATM    3  C13 UNK   900      18.570  51.766   8.866  1.00  0.00     0.176 C 
HETATM    4  O3  UNK   900      18.995  53.056   9.212  1.00  0.00    -0.350 OA
HETATM    5  C14 UNK   900      18.274  52.897  10.404  1.00  0.00     0.176 C 
BRANCH   2   6
HETATM    6  N1  UNK   900      16.183  52.358   9.134  1.00  0.00     0.138 N 
BRANCH   6   7
HETATM    7  C2  UNK   900      15.013  52.013   9.917  1.00  0.00     0.250 C 
HETATM    8  C1  UNK   900      13.944  51.420   9.023  1.00  0.00     0.037 C 
ENDBRANCH   6   7
BRANCH   6   9
HETATM    9  C3  UNK   900      16.099  51.912   7.766  1.00  0.00     0.250 C 
HETATM   10  C4  UNK   900      16.095  53.113   6.836  1.00  0.00     0.037 C 
ENDBRANCH   6   9
ENDBRANCH   2   6
ENDBRANCH   1   2
BRANCH   1  11
HETATM   11  C7  UNK   900      17.516  49.386   9.770  1.00  0.00     0.090 C 
HETATM   12  C8  UNK   900      16.512  48.534   9.325  1.00  0.00     0.042 C 
HETATM   13  C9  UNK   900      17.105  47.326   9.052  1.00  0.00     0.131 C 
HETATM   14  O2  UNK   900      18.386  47.514   9.207  1.00  0.00    -0.213 OA
HETATM   15  N2  UNK   900      18.590  48.581   9.937  1.00  0.00    -0.131 NA
BRANCH  13  16
HETATM   16  C10 UNK   900      16.377  46.177   8.455  1.00  0.00     0.168 C 
HETATM   17  C11 UNK   900      15.032  46.024   9.108  1.00  0.00     0.040 C 
HETATM   18  C12 UNK   900      17.227  44.951   8.644  1.00  0.00     0.040 C 
HETATM   19  O1  UNK   900      16.249  46.386   7.089  1.00  0.00    -0.219 OA
ENDBRANCH  13  16
ENDBRANCH   1  11
TORSDOF 6
ENDMDL
