MODEL 1
REMARK VINA RESULT:      -8.7      0.000      0.000
REMARK  6 active torsions:
REMARK  status: ('A' for Active; 'I' for Inactive)
REMARK    1  A    between atoms: C2_2  and  C3_3 
REMARK    2  A    between atoms: C2_2  and  C8_11 
REMARK       I    between atoms: C3_3  and  N1_5 
REMARK    3  A    between atoms: N1_5  and  C5_7 
REMARK    4  A    between atoms: C5_7  and  C6_8 
REMARK    5  A    between atoms: C15_18  and  N3_19 
REMARK       I    between atoms: N3_19  and  C16_20 
REMARK    6  A    between atoms: C16_20  and  C17_22 
ROOT
HETATM    1  C6  UNK   900       8.009  37.338   6.690  1.00  0.00     0.123 C 
HETATM    2  C7  UNK   900       8.523  36.680   7.878  1.00  0.00     0.075 C 
HETATM    3  N2  UNK   900       8.895  36.087   8.812  1.00  0.00    -0.196 NA
ENDROOT
BRANCH   1   4
HETATM    4  C5  UNK   900       9.119  37.920   5.852  1.00  0.00     0.096 C 
BRANCH   4   5
HETATM    5  N1  UNK   900       9.945  38.868   6.595  1.00  0.00    -0.221 NA
HETATM    6  C3  UNK   900       9.657  40.255   6.346  1.00  0.00     0.213 C 
HETATM    7  O1  UNK   900       9.593  40.526   5.135  1.00  0.00    -0.279 OA
HETATM    8  C4  UNK   900      11.374  38.559   6.602  1.00  0.00     0.097 C 
BRANCH   6   9
HETATM    9  C2  UNK   900      10.376  41.274   7.342  1.00  0.00     0.080 C 
HETATM   10  C1  UNK   900      11.015  42.238   6.195  1.00  0.00     0.010 C 
BRANCH   9  11
HETATM   11  C8  UNK   900       8.986  42.209   7.609  1.00  0.00     0.060 C 
HETATM   12  C9  UNK   900       9.742  43.596   7.830  1.00  0.00    -0.028 C 
HETATM   13  C10 UNK   900       9.377  44.354   8.957  1.00  0.00    -0.031 C 
HETATM   14  C11 UNK   900       8.378  43.985   9.929  1.00  0.00     0.021 C 
HETATM   15  C12 UNK   900       9.067  43.585  11.199  1.00  0.00     0.004 C 
HETATM   16  C13 UNK   900       7.349  45.002  10.305  1.00  0.00     0.006 C 
HETATM   17  C24 UNK   900       7.480  42.778   9.359  1.00  0.00     0.036 C 
HETATM   18  C14 UNK   900       6.026  44.462   9.915  1.00  0.00     0.025 C 
HETATM   19  C15 UNK   900       5.605  43.265  10.942  1.00  0.00     0.107 C 
HETATM   20  C22 UNK   900       7.036  42.359  10.914  1.00  0.00     0.025 C 
HETATM   21  C23 UNK   900       6.222  41.043  10.484  1.00  0.00     0.002 C 
HETATM   22  C25 UNK   900       8.822  41.770   9.241  1.00  0.00     0.157 C 
HETATM   23  O3  UNK   900       7.998  40.577   8.842  1.00  0.00    -0.223 OA
BRANCH  19  24
HETATM   24  N3  UNK   900       6.060  44.103  12.186  1.00  0.00    -0.236 NA
HETATM   25  C16 UNK   900       5.069  44.605  13.034  1.00  0.00     0.275 C 
HETATM   26  O2  UNK   900       4.261  43.710  13.427  1.00  0.00    -0.266 OA
BRANCH  25  27
HETATM   27  C17 UNK   900       4.594  45.992  13.122  1.00  0.00     0.061 C 
HETATM   28  C18 UNK   900       3.757  46.517  12.137  1.00  0.00     0.025 C 
HETATM   29  C19 UNK   900       3.996  47.777  11.596  1.00  0.00     0.099 C 
HETATM   30  N4  UNK   900       5.158  48.431  11.848  1.00  0.00    -0.242 NA
HETATM   31  C20 UNK   900       5.677  48.165  13.074  1.00  0.00     0.099 C 
HETATM   32  C21 UNK   900       5.325  46.997  13.749  1.00  0.00     0.025 C 
ENDBRANCH  25  27
ENDBRANCH  19  24
ENDBRANCH   9  11
ENDBRANCH   6   9
ENDBRANCH   4   5
ENDBRANCH   1   4
TORSDOF 6
ENDMDL
MODEL 2
REMARK VINA RESULT:      -8.5      6.587      8.428
REMARK  6 active torsions:
REMARK  status: ('A' for Active; 'I' for Inactive)
REMARK    1  A    between atoms: C2_2  and  C3_3 
REMARK    2  A    between atoms: C2_2  and  C8_11 
REMARK       I    between atoms: C3_3  and  N1_5 
REMARK    3  A    between atoms: N1_5  and  C5_7 
REMARK    4  A    between atoms: C5_7  and  C6_8 
REMARK    5  A    between atoms: C15_18  and  N3_19 
REMARK       I    between atoms: N3_19  and  C16_20 
REMARK    6  A    between atoms: C16_20  and  C17_22 
ROOT
HETATM    1  C6  UNK   900      13.982  40.632   8.381  1.00  0.00     0.123 C 
HETATM    2  C7  UNK   900      14.925  40.648   7.277  1.00  0.00     0.075 C 
HETATM    3  N2  UNK   900      15.728  40.616   6.431  1.00  0.00    -0.196 NA
ENDROOT
BRANCH   1   4
HETATM    4  C5  UNK   900      12.598  40.243   7.927  1.00  0.00     0.096 C 
BRANCH   4   5
HETATM    5  N1  UNK   900      11.970  41.271   7.101  1.00  0.00    -0.221 NA
HETATM    6  C3  UNK   900      11.168  42.225   7.819  1.00  0.00     0.213 C 
HETATM    7  O1  UNK   900      10.369  41.691   8.606  1.00  0.00    -0.279 OA
HETATM    8  C4  UNK   900      11.335  40.773   5.882  1.00  0.00     0.097 C 
BRANCH   6   9
HETATM    9  C2  UNK   900      10.700  43.485   6.957  1.00  0.00     0.080 C 
HETATM   10  C1  UNK   900       9.130  43.433   7.387  1.00  0.00     0.010 C 
BRANCH   9  11
HETATM   11  C8  UNK   900      11.168  44.628   8.120  1.00  0.00     0.060 C 
HETATM   12  C9  UNK   900      10.181  45.786   7.641  1.00  0.00    -0.028 C 
HETATM   13  C10 UNK   900      10.732  47.068   7.463  1.00  0.00    -0.031 C 
HETATM   14  C11 UNK   900      12.112  47.425   7.677  1.00  0.00     0.021 C 
HETATM   15  C12 UNK   900      12.765  47.644   6.346  1.00  0.00     0.004 C 
HETATM   16  C13 UNK   900      12.408  48.637   8.502  1.00  0.00     0.006 C 
HETATM   17  C24 UNK   900      12.858  46.259   8.497  1.00  0.00     0.036 C 
HETATM   18  C14 UNK   900      13.166  48.191   9.694  1.00  0.00     0.025 C 
HETATM   19  C15 UNK   900      14.685  47.791   9.253  1.00  0.00     0.107 C 
HETATM   20  C22 UNK   900      14.336  46.791   7.931  1.00  0.00     0.025 C 
HETATM   21  C23 UNK   900      15.183  45.592   8.585  1.00  0.00     0.002 C 
HETATM   22  C25 UNK   900      12.552  45.139   7.279  1.00  0.00     0.157 C 
HETATM   23  O3  UNK   900      13.361  44.062   7.947  1.00  0.00    -0.223 OA
BRANCH  19  24
HETATM   24  N3  UNK   900      14.816  49.071   8.356  1.00  0.00    -0.236 NA
HETATM   25  C16 UNK   900      15.586  50.131   8.841  1.00  0.00     0.275 C 
HETATM   26  O2  UNK   900      16.749  49.770   9.196  1.00  0.00    -0.266 OA
BRANCH  25  27
HETATM   27  C17 UNK   900      15.101  51.399   9.402  1.00  0.00     0.061 C 
HETATM   28  C18 UNK   900      14.397  52.302   8.606  1.00  0.00     0.025 C 
HETATM   29  C19 UNK   900      14.700  53.660   8.627  1.00  0.00     0.099 C 
HETATM   30  N4  UNK   900      15.820  54.110   9.249  1.00  0.00    -0.242 NA
HETATM   31  C20 UNK   900      16.178  53.368  10.328  1.00  0.00     0.099 C 
HETATM   32  C21 UNK   900      15.744  52.050  10.452  1.00  0.00     0.025 C 
ENDBRANCH  25  27
ENDBRANCH  19  24
ENDBRANCH   9  11
ENDBRANCH   6   9
ENDBRANCH   4   5
ENDBRANCH   1   4
TORSDOF 6
ENDMDL
MODEL 3
REMARK VINA RESULT:      -8.3      8.156     11.103
REMARK  6 active torsions:
REMARK  status: ('A' for Active; 'I' for Inactive)
REMARK    1  A    between atoms: C2_2  and  C3_3 
REMARK    2  A    between atoms: C2_2  and  C8_11 
REMARK       I    between atoms: C3_3  and  N1_5 
REMARK    3  A    between atoms: N1_5  and  C5_7 
REMARK    4  A    between atoms: C5_7  and  C6_8 
REMARK    5  A    between atoms: C15_18  and  N3_19 
REMARK       I    between atoms: N3_19  and  C16_20 
REMARK    6  A    between atoms: C16_20  and  C17_22 
ROOT
HETATM    1  C6  UNK   900      16.843  53.068   7.546  1.00  0.00     0.123 C 
HETATM    2  C7  UNK   900      16.408  52.170   6.492  1.00  0.00     0.075 C 
HETATM    3  N2  UNK   900      16.087  51.498   5.594  1.00  0.00    -0.196 NA
ENDROOT
BRANCH   1   4
HETATM    4  C5  UNK   900      17.695  52.359   8.568  1.00  0.00     0.096 C 
BRANCH   4   5
HETATM    5  N1  UNK   900      18.239  51.100   8.066  1.00  0.00    -0.221 NA
HETATM    6  C3  UNK   900      18.170  49.995   8.984  1.00  0.00     0.213 C 
HETATM    7  O1  UNK   900      18.593  50.280  10.117  1.00  0.00    -0.279 OA
HETATM    8  C4  UNK   900      19.531  51.219   7.391  1.00  0.00     0.097 C 
BRANCH   6   9
HETATM    9  C2  UNK   900      18.525  48.576   8.346  1.00  0.00     0.080 C 
HETATM   10  C1  UNK   900      19.718  48.196   9.387  1.00  0.00     0.010 C 
BRANCH   9  11
HETATM   11  C8  UNK   900      17.296  47.744   9.169  1.00  0.00     0.060 C 
HETATM   12  C9  UNK   900      18.008  46.317   9.161  1.00  0.00    -0.028 C 
HETATM   13  C10 UNK   900      17.239  45.217   8.744  1.00  0.00    -0.031 C 
HETATM   14  C11 UNK   900      15.861  45.268   8.322  1.00  0.00     0.021 C 
HETATM   15  C12 UNK   900      15.805  45.075   6.837  1.00  0.00     0.004 C 
HETATM   16  C13 UNK   900      14.903  44.286   8.916  1.00  0.00     0.006 C 
HETATM   17  C24 UNK   900      15.213  46.680   8.742  1.00  0.00     0.036 C 
HETATM   18  C14 UNK   900      13.877  45.055   9.656  1.00  0.00     0.025 C 
HETATM   19  C15 UNK   900      12.879  45.790   8.594  1.00  0.00     0.107 C 
HETATM   20  C22 UNK   900      14.032  46.498   7.574  1.00  0.00     0.025 C 
HETATM   21  C23 UNK   900      13.378  47.947   7.801  1.00  0.00     0.002 C 
HETATM   22  C25 UNK   900      16.320  47.525   7.797  1.00  0.00     0.157 C 
HETATM   23  O3  UNK   900      15.656  48.850   8.052  1.00  0.00    -0.223 OA
BRANCH  19  24
HETATM   24  N3  UNK   900      12.776  44.495   7.717  1.00  0.00    -0.236 NA
HETATM   25  C16 UNK   900      11.505  43.962   7.486  1.00  0.00     0.275 C 
HETATM   26  O2  UNK   900      10.688  44.820   7.032  1.00  0.00    -0.266 OA
BRANCH  25  27
HETATM   27  C17 UNK   900      10.914  42.771   8.111  1.00  0.00     0.061 C 
HETATM   28  C18 UNK   900       9.778  42.175   7.564  1.00  0.00     0.025 C 
HETATM   29  C19 UNK   900       8.710  41.797   8.371  1.00  0.00     0.099 C 
HETATM   30  N4  UNK   900       8.649  42.192   9.668  1.00  0.00    -0.242 NA
HETATM   31  C20 UNK   900       9.866  42.322  10.255  1.00  0.00     0.099 C 
HETATM   32  C21 UNK   900      11.005  42.517   9.477  1.00  0.00     0.025 C 
ENDBRANCH  25  27
ENDBRANCH  19  24
ENDBRANCH   9  11
ENDBRANCH   6   9
ENDBRANCH   4   5
ENDBRANCH   1   4
TORSDOF 6
ENDMDL
MODEL 4
REMARK VINA RESULT:      -8.2      2.344      9.415
REMARK  6 active torsions:
REMARK  status: ('A' for Active; 'I' for Inactive)
REMARK    1  A    between atoms: C2_2  and  C3_3 
REMARK    2  A    between atoms: C2_2  and  C8_11 
REMARK       I    between atoms: C3_3  and  N1_5 
REMARK    3  A    between atoms: N1_5  and  C5_7 
REMARK    4  A    between atoms: C5_7  and  C6_8 
REMARK    5  A    between atoms: C15_18  and  N3_19 
REMARK       I    between atoms: N3_19  and  C16_20 
REMARK    6  A    between atoms: C16_20  and  C17_22 
ROOT
HETATM    1  C6  UNK   900       5.204  46.777  13.399  1.00  0.00     0.123 C 
HETATM    2  C7  UNK   900       5.558  48.145  13.064  1.00  0.00     0.075 C 
HETATM    3  N2  UNK   900       5.827  49.264  12.868  1.00  0.00    -0.196 NA
ENDROOT
BRANCH   1   4
HETATM    4  C5  UNK   900       6.281  45.807  12.986  1.00  0.00     0.096 C 
BRANCH   4   5
HETATM    5  N1  UNK   900       5.746  44.497  12.623  1.00  0.00    -0.221 NA
HETATM    6  C3  UNK   900       5.564  44.281  11.212  1.00  0.00     0.213 C 
HETATM    7  O1  UNK   900       4.962  45.213  10.654  1.00  0.00    -0.279 OA
HETATM    8  C4  UNK   900       4.613  44.054  13.434  1.00  0.00     0.097 C 
BRANCH   6   9
HETATM    9  C2  UNK   900       5.228  42.774  10.808  1.00  0.00     0.080 C 
HETATM   10  C1  UNK   900       3.871  43.103   9.970  1.00  0.00     0.010 C 
BRANCH   9  11
HETATM   11  C8  UNK   900       6.267  42.757   9.467  1.00  0.00     0.060 C 
HETATM   12  C9  UNK   900       5.628  41.479   8.759  1.00  0.00    -0.028 C 
HETATM   13  C10 UNK   900       6.512  40.475   8.326  1.00  0.00    -0.031 C 
HETATM   14  C11 UNK   900       7.947  40.502   8.466  1.00  0.00     0.021 C 
HETATM   15  C12 UNK   900       8.345  39.522   9.527  1.00  0.00     0.004 C 
HETATM   16  C13 UNK   900       8.780  40.191   7.264  1.00  0.00     0.006 C 
HETATM   17  C24 UNK   900       8.431  41.989   8.846  1.00  0.00     0.036 C 
HETATM   18  C14 UNK   900       9.583  41.396   6.954  1.00  0.00     0.025 C 
HETATM   19  C15 UNK   900      10.768  41.559   8.064  1.00  0.00     0.107 C 
HETATM   20  C22 UNK   900       9.851  41.376   9.477  1.00  0.00     0.025 C 
HETATM   21  C23 UNK   900      10.384  42.787  10.032  1.00  0.00     0.002 C 
HETATM   22  C25 UNK   900       7.537  41.967  10.272  1.00  0.00     0.157 C 
HETATM   23  O3  UNK   900       8.077  43.294  10.731  1.00  0.00    -0.223 OA
BRANCH  19  24
HETATM   24  N3  UNK   900      11.114  40.031   7.992  1.00  0.00    -0.236 NA
HETATM   25  C16 UNK   900      12.449  39.674   7.784  1.00  0.00     0.275 C 
HETATM   26  O2  UNK   900      13.240  40.226   8.608  1.00  0.00    -0.266 OA
BRANCH  25  27
HETATM   27  C17 UNK   900      13.053  39.179   6.539  1.00  0.00     0.061 C 
HETATM   28  C18 UNK   900      14.016  38.170   6.573  1.00  0.00     0.025 C 
HETATM   29  C19 UNK   900      15.184  38.274   5.824  1.00  0.00     0.099 C 
HETATM   30  N4  UNK   900      15.518  39.441   5.218  1.00  0.00    -0.242 NA
HETATM   31  C20 UNK   900      14.446  40.171   4.815  1.00  0.00     0.099 C 
HETATM   32  C21 UNK   900      13.199  39.975   5.407  1.00  0.00     0.025 C 
ENDBRANCH  25  27
ENDBRANCH  19  24
ENDBRANCH   9  11
ENDBRANCH   6   9
ENDBRANCH   4   5
ENDBRANCH   1   4
TORSDOF 6
ENDMDL
MODEL 5
REMARK VINA RESULT:      -8.2      4.027      6.425
REMARK  6 active torsions:
REMARK  status: ('A' for Active; 'I' for Inactive)
REMARK    1  A    between atoms: C2_2  and  C3_3 
REMARK    2  A    between atoms: C2_2  and  C8_11 
REMARK       I    between atoms: C3_3  and  N1_5 
REMARK    3  A    between atoms: N1_5  and  C5_7 
REMARK    4  A    between atoms: C5_7  and  C6_8 
REMARK    5  A    between atoms: C15_18  and  N3_19 
REMARK       I    between atoms: N3_19  and  C16_20 
REMARK    6  A    between atoms: C16_20  and  C17_22 
ROOT
HETATM    1  C6  UNK   900       9.550  44.693   7.390  1.00  0.00     0.123 C 
HETATM    2  C7  UNK   900       9.487  43.407   8.061  1.00  0.00     0.075 C 
HETATM    3  N2  UNK   900       9.460  42.341   8.534  1.00  0.00    -0.196 NA
ENDROOT
BRANCH   1   4
HETATM    4  C5  UNK   900      10.375  45.687   8.167  1.00  0.00     0.096 C 
BRANCH   4   5
HETATM    5  N1  UNK   900       9.927  45.828   9.550  1.00  0.00    -0.221 NA
HETATM    6  C3  UNK   900       8.986  46.890   9.783  1.00  0.00     0.213 C 
HETATM    7  O1  UNK   900       9.344  47.971   9.285  1.00  0.00    -0.279 OA
HETATM    8  C4  UNK   900      10.993  45.762  10.548  1.00  0.00     0.097 C 
BRANCH   6   9
HETATM    9  C2  UNK   900       8.309  46.876  11.228  1.00  0.00     0.080 C 
HETATM   10  C1  UNK   900       8.185  48.492  11.393  1.00  0.00     0.010 C 
BRANCH   9  11
HETATM   11  C8  UNK   900       6.735  46.635  10.640  1.00  0.00     0.060 C 
HETATM   12  C9  UNK   900       6.010  47.629  11.654  1.00  0.00    -0.028 C 
HETATM   13  C10 UNK   900       4.870  47.148  12.321  1.00  0.00    -0.031 C 
HETATM   14  C11 UNK   900       4.301  45.832  12.169  1.00  0.00     0.021 C 
HETATM   15  C12 UNK   900       4.593  45.035  13.404  1.00  0.00     0.004 C 
HETATM   16  C13 UNK   900       2.829  45.722  11.928  1.00  0.00     0.006 C 
HETATM   17  C24 UNK   900       4.918  45.117  10.865  1.00  0.00     0.036 C 
HETATM   18  C14 UNK   900       2.640  45.091  10.602  1.00  0.00     0.025 C 
HETATM   19  C15 UNK   900       3.013  43.505  10.698  1.00  0.00     0.107 C 
HETATM   20  C22 UNK   900       4.511  43.619  11.481  1.00  0.00     0.025 C 
HETATM   21  C23 UNK   900       5.215  42.782  10.304  1.00  0.00     0.002 C 
HETATM   22  C25 UNK   900       6.474  45.193  11.501  1.00  0.00     0.157 C 
HETATM   23  O3  UNK   900       7.068  44.404  10.367  1.00  0.00    -0.223 OA
BRANCH  19  24
HETATM   24  N3  UNK   900       2.226  43.350  12.045  1.00  0.00    -0.236 NA
HETATM   25  C16 UNK   900       1.092  42.535  12.049  1.00  0.00     0.275 C 
HETATM   26  O2  UNK   900       1.317  41.377  11.580  1.00  0.00    -0.266 OA
BRANCH  25  27
HETATM   27  C17 UNK   900      -0.313  42.966  12.062  1.00  0.00     0.061 C 
HETATM   28  C18 UNK   900      -0.773  43.847  13.041  1.00  0.00     0.025 C 
HETATM   29  C19 UNK   900      -1.969  43.609  13.710  1.00  0.00     0.099 C 
HETATM   30  N4  UNK   900      -2.605  42.416  13.590  1.00  0.00    -0.242 NA
HETATM   31  C20 UNK   900      -2.436  41.829  12.377  1.00  0.00     0.099 C 
HETATM   32  C21 UNK   900      -1.347  42.171  11.576  1.00  0.00     0.025 C 
ENDBRANCH  25  27
ENDBRANCH  19  24
ENDBRANCH   9  11
ENDBRANCH   6   9
ENDBRANCH   4   5
ENDBRANCH   1   4
TORSDOF 6
ENDMDL
MODEL 6
REMARK VINA RESULT:      -8.1      4.853      8.867
REMARK  6 active torsions:
REMARK  status: ('A' for Active; 'I' for Inactive)
REMARK    1  A    between atoms: C2_2  and  C3_3 
REMARK    2  A    between atoms: C2_2  and  C8_11 
REMARK       I    between atoms: C3_3  and  N1_5 
REMARK    3  A    between atoms: N1_5  and  C5_7 
REMARK    4  A    between atoms: C5_7  and  C6_8 
REMARK    5  A    between atoms: C15_18  and  N3_19 
REMARK       I    between atoms: N3_19  and  C16_20 
REMARK    6  A    between atoms: C16_20  and  C17_22 
ROOT
HETATM    1  C6  UNK   900       5.557  43.107  13.289  1.00  0.00     0.123 C 
HETATM    2  C7  UNK   900       6.977  43.408  13.268  1.00  0.00     0.075 C 
HETATM    3  N2  UNK   900       8.127  43.595  13.196  1.00  0.00    -0.196 NA
ENDROOT
BRANCH   1   4
HETATM    4  C5  UNK   900       4.722  44.347  13.095  1.00  0.00     0.096 C 
BRANCH   4   5
HETATM    5  N1  UNK   900       5.144  45.132  11.938  1.00  0.00    -0.221 NA
HETATM    6  C3  UNK   900       5.523  46.489  12.226  1.00  0.00     0.213 C 
HETATM    7  O1  UNK   900       4.690  47.086  12.929  1.00  0.00    -0.279 OA
HETATM    8  C4  UNK   900       4.283  45.002  10.764  1.00  0.00     0.097 C 
BRANCH   6   9
HETATM    9  C2  UNK   900       6.223  47.257  11.014  1.00  0.00     0.080 C 
HETATM   10  C1  UNK   900       6.080  48.756  11.635  1.00  0.00     0.010 C 
BRANCH   9  11
HETATM   11  C8  UNK   900       7.802  46.981  11.571  1.00  0.00     0.060 C 
HETATM   12  C9  UNK   900       8.291  48.496  11.481  1.00  0.00    -0.028 C 
HETATM   13  C10 UNK   900       9.520  48.738  10.841  1.00  0.00    -0.031 C 
HETATM   14  C11 UNK   900      10.375  47.734  10.259  1.00  0.00     0.021 C 
HETATM   15  C12 UNK   900      10.290  47.836   8.766  1.00  0.00     0.004 C 
HETATM   16  C13 UNK   900      11.829  47.757  10.606  1.00  0.00     0.006 C 
HETATM   17  C24 UNK   900       9.923  46.273  10.761  1.00  0.00     0.036 C 
HETATM   18  C14 UNK   900      12.142  46.485  11.299  1.00  0.00     0.025 C 
HETATM   19  C15 UNK   900      12.146  45.265  10.215  1.00  0.00     0.107 C 
HETATM   20  C22 UNK   900      10.672  45.576   9.440  1.00  0.00     0.025 C 
HETATM   21  C23 UNK   900      10.165  44.085   9.756  1.00  0.00     0.002 C 
HETATM   22  C25 UNK   900       8.399  46.454  10.070  1.00  0.00     0.157 C 
HETATM   23  O3  UNK   900       7.989  45.045  10.397  1.00  0.00    -0.223 OA
BRANCH  19  24
HETATM   24  N3  UNK   900      12.964  46.116   9.183  1.00  0.00    -0.236 NA
HETATM   25  C16 UNK   900      14.263  45.700   8.878  1.00  0.00     0.275 C 
HETATM   26  O2  UNK   900      14.319  44.483   8.528  1.00  0.00    -0.266 OA
BRANCH  25  27
HETATM   27  C17 UNK   900      15.520  46.299   9.346  1.00  0.00     0.061 C 
HETATM   28  C18 UNK   900      15.520  47.543   9.977  1.00  0.00     0.025 C 
HETATM   29  C19 UNK   900      16.445  48.521   9.627  1.00  0.00     0.099 C 
HETATM   30  N4  UNK   900      17.223  48.377   8.525  1.00  0.00    -0.242 NA
HETATM   31  C20 UNK   900      17.538  47.086   8.247  1.00  0.00     0.099 C 
HETATM   32  C21 UNK   900      16.745  46.048   8.732  1.00  0.00     0.025 C 
ENDBRANCH  25  27
ENDBRANCH  19  24
ENDBRANCH   9  11
ENDBRANCH   6   9
ENDBRANCH   4   5
ENDBRANCH   1   4
TORSDOF 6
ENDMDL
MODEL 7
REMARK VINA RESULT:      -8.1      2.493      9.583
REMARK  6 active torsions:
REMARK  status: ('A' for Active; 'I' for Inactive)
REMARK    1  A    between atoms: C2_2  and  C3_3 
REMARK    2  A    between atoms: C2_2  and  C8_11 
REMARK       I    between atoms: C3_3  and  N1_5 
REMARK    3  A    between atoms: N1_5  and  C5_7 
REMARK    4  A    between atoms: C5_7  and  C6_8 
REMARK    5  A    between atoms: C15_18  and  N3_19 
REMARK       I    between atoms: N3_19  and  C16_20 
REMARK    6  A    between atoms: C16_20  and  C17_22 
ROOT
HETATM    1  C6  UNK   900       5.358  46.359  12.017  1.00  0.00     0.123 C 
HETATM    2  C7  UNK   900       5.269  46.465  13.462  1.00  0.00     0.075 C 
HETATM    3  N2  UNK   900       5.126  46.579  14.615  1.00  0.00    -0.196 NA
ENDROOT
BRANCH   1   4
HETATM    4  C5  UNK   900       5.767  44.975  11.584  1.00  0.00     0.096 C 
BRANCH   4   5
HETATM    5  N1  UNK   900       6.953  44.981  10.732  1.00  0.00    -0.221 NA
HETATM    6  C3  UNK   900       7.936  43.979  11.045  1.00  0.00     0.213 C 
HETATM    7  O1  UNK   900       8.218  43.939  12.255  1.00  0.00    -0.279 OA
HETATM    8  C4  UNK   900       7.524  46.305  10.490  1.00  0.00     0.097 C 
BRANCH   6   9
HETATM    9  C2  UNK   900       9.098  43.824   9.962  1.00  0.00     0.080 C 
HETATM   10  C1  UNK   900      10.335  44.168  10.963  1.00  0.00     0.010 C 
BRANCH   9  11
HETATM   11  C8  UNK   900       9.205  42.137  10.116  1.00  0.00     0.060 C 
HETATM   12  C9  UNK   900      10.729  42.012   9.663  1.00  0.00    -0.028 C 
HETATM   13  C10 UNK   900      11.032  41.042   8.690  1.00  0.00    -0.031 C 
HETATM   14  C11 UNK   900      10.084  40.152   8.068  1.00  0.00     0.021 C 
HETATM   15  C12 UNK   900       9.861  40.597   6.654  1.00  0.00     0.004 C 
HETATM   16  C13 UNK   900      10.416  38.696   8.010  1.00  0.00     0.006 C 
HETATM   17  C24 UNK   900       8.704  40.159   8.895  1.00  0.00     0.036 C 
HETATM   18  C14 UNK   900       9.383  37.971   8.786  1.00  0.00     0.025 C 
HETATM   19  C15 UNK   900       7.983  37.959   7.947  1.00  0.00     0.107 C 
HETATM   20  C22 UNK   900       7.882  39.604   7.551  1.00  0.00     0.025 C 
HETATM   21  C23 UNK   900       6.425  39.699   8.221  1.00  0.00     0.002 C 
HETATM   22  C25 UNK   900       8.486  41.804   8.614  1.00  0.00     0.157 C 
HETATM   23  O3  UNK   900       7.127  41.822   9.256  1.00  0.00    -0.223 OA
BRANCH  19  24
HETATM   24  N3  UNK   900       8.726  37.599   6.614  1.00  0.00    -0.236 NA
HETATM   25  C16 UNK   900       8.776  36.254   6.238  1.00  0.00     0.275 C 
HETATM   26  O2  UNK   900       7.632  35.706   6.220  1.00  0.00    -0.266 OA
BRANCH  25  27
HETATM   27  C17 UNK   900       9.927  35.346   6.334  1.00  0.00     0.061 C 
HETATM   28  C18 UNK   900      10.570  34.895   5.181  1.00  0.00     0.025 C 
HETATM   29  C19 UNK   900      10.902  33.553   5.028  1.00  0.00     0.099 C 
HETATM   30  N4  UNK   900      10.421  32.618   5.886  1.00  0.00    -0.242 NA
HETATM   31  C20 UNK   900      10.240  33.080   7.149  1.00  0.00     0.099 C 
HETATM   32  C21 UNK   900      10.088  34.446   7.383  1.00  0.00     0.025 C 
ENDBRANCH  25  27
ENDBRANCH  19  24
ENDBRANCH   9  11
ENDBRANCH   6   9
ENDBRANCH   4   5
ENDBRANCH   1   4
TORSDOF 6
ENDMDL
MODEL 8
REMARK VINA RESULT:      -8.1      2.096      9.522
REMARK  6 active torsions:
REMARK  status: ('A' for Active; 'I' for Inactive)
REMARK    1  A    between atoms: C2_2  and  C3_3 
REMARK    2  A    between atoms: C2_2  and  C8_11 
REMARK       I    between atoms: C3_3  and  N1_5 
REMARK    3  A    between atoms: N1_5  and  C5_7 
REMARK    4  A    between atoms: C5_7  and  C6_8 
REMARK    5  A    between atoms: C15_18  and  N3_19 
REMARK       I    between atoms: N3_19  and  C16_20 
REMARK    6  A    between atoms: C16_20  and  C17_22 
ROOT
HETATM    1  C6  UNK   900       7.330  47.309  11.083  1.00  0.00     0.123 C 
HETATM    2  C7  UNK   900       6.535  48.277  11.816  1.00  0.00     0.075 C 
HETATM    3  N2  UNK   900       5.935  49.111  12.369  1.00  0.00    -0.196 NA
ENDROOT
BRANCH   1   4
HETATM    4  C5  UNK   900       6.464  46.286  10.392  1.00  0.00     0.096 C 
BRANCH   4   5
HETATM    5  N1  UNK   900       6.610  44.950  10.965  1.00  0.00    -0.221 NA
HETATM    6  C3  UNK   900       5.846  43.920  10.314  1.00  0.00     0.213 C 
HETATM    7  O1  UNK   900       4.657  44.236  10.139  1.00  0.00    -0.279 OA
HETATM    8  C4  UNK   900       6.537  44.899  12.424  1.00  0.00     0.097 C 
BRANCH   6   9
HETATM    9  C2  UNK   900       6.204  42.434  10.774  1.00  0.00     0.080 C 
HETATM   10  C1  UNK   900       4.714  41.810  10.568  1.00  0.00     0.010 C 
BRANCH   9  11
HETATM   11  C8  UNK   900       6.807  41.963   9.259  1.00  0.00     0.060 C 
HETATM   12  C9  UNK   900       6.242  40.473   9.296  1.00  0.00    -0.028 C 
HETATM   13  C10 UNK   900       7.136  39.437   8.971  1.00  0.00    -0.031 C 
HETATM   14  C11 UNK   900       8.521  39.609   8.609  1.00  0.00     0.021 C 
HETATM   15  C12 UNK   900       9.378  39.146   9.748  1.00  0.00     0.004 C 
HETATM   16  C13 UNK   900       9.023  38.908   7.386  1.00  0.00     0.006 C 
HETATM   17  C24 UNK   900       8.810  41.154   8.264  1.00  0.00     0.036 C 
HETATM   18  C14 UNK   900       9.468  39.947   6.429  1.00  0.00     0.025 C 
HETATM   19  C15 UNK   900      10.867  40.604   6.952  1.00  0.00     0.107 C 
HETATM   20  C22 UNK   900      10.438  40.927   8.559  1.00  0.00     0.025 C 
HETATM   21  C23 UNK   900      10.836  42.473   8.378  1.00  0.00     0.002 C 
HETATM   22  C25 UNK   900       8.376  41.632   9.818  1.00  0.00     0.157 C 
HETATM   23  O3  UNK   900       8.768  43.064   9.580  1.00  0.00    -0.223 OA
BRANCH  19  24
HETATM   24  N3  UNK   900      11.456  39.194   7.306  1.00  0.00    -0.236 NA
HETATM   25  C16 UNK   900      12.365  38.623   6.412  1.00  0.00     0.275 C 
HETATM   26  O2  UNK   900      13.327  39.399   6.128  1.00  0.00    -0.266 OA
BRANCH  25  27
HETATM   27  C17 UNK   900      12.112  37.531   5.462  1.00  0.00     0.061 C 
HETATM   28  C18 UNK   900      11.247  37.716   4.384  1.00  0.00     0.025 C 
HETATM   29  C19 UNK   900      10.285  36.762   4.068  1.00  0.00     0.099 C 
HETATM   30  N4  UNK   900      10.017  35.740   4.919  1.00  0.00    -0.242 NA
HETATM   31  C20 UNK   900      11.096  35.332   5.636  1.00  0.00     0.099 C 
HETATM   32  C21 UNK   900      12.178  36.189   5.828  1.00  0.00     0.025 C 
ENDBRANCH  25  27
ENDBRANCH  19  24
ENDBRANCH   9  11
ENDBRANCH   6   9
ENDBRANCH   4   5
ENDBRANCH   1   4
TORSDOF 6
ENDMDL
MODEL 9
REMARK VINA RESULT:      -8.1      3.070      9.139
REMARK  6 active torsions:
REMARK  status: ('A' for Active; 'I' for Inactive)
REMARK    1  A    between atoms: C2_2  and  C3_3 
REMARK    2  A    between atoms: C2_2  and  C8_11 
REMARK       I    between atoms: C3_3  and  N1_5 
REMARK    3  A    between atoms: N1_5  and  C5_7 
REMARK    4  A    between atoms: C5_7  and  C6_8 
REMARK    5  A    between atoms: C15_18  and  N3_19 
REMARK       I    between atoms: N3_19  and  C16_20 
REMARK    6  A    between atoms: C16_20  and  C17_22 
ROOT
HETATM    1  C6  UNK   900       3.326  46.833  11.961  1.00  0.00     0.123 C 
HETATM    2  C7  UNK   900       3.200  45.721  11.037  1.00  0.00     0.075 C 
HETATM    3  N2  UNK   900       3.061  44.874  10.246  1.00  0.00    -0.196 NA
ENDROOT
BRANCH   1   4
HETATM    4  C5  UNK   900       4.756  47.042  12.390  1.00  0.00     0.096 C 
BRANCH   4   5
HETATM    5  N1  UNK   900       5.604  47.523  11.302  1.00  0.00    -0.221 NA
HETATM    6  C3  UNK   900       7.002  47.632  11.620  1.00  0.00     0.213 C 
HETATM    7  O1  UNK   900       7.211  48.232  12.688  1.00  0.00    -0.279 OA
HETATM    8  C4  UNK   900       5.075  48.681  10.583  1.00  0.00     0.097 C 
BRANCH   6   9
HETATM    9  C2  UNK   900       7.950  47.908  10.366  1.00  0.00     0.080 C 
HETATM   10  C1  UNK   900       8.757  49.166  11.013  1.00  0.00     0.010 C 
BRANCH   9  11
HETATM   11  C8  UNK   900       9.089  46.725  10.792  1.00  0.00     0.060 C 
HETATM   12  C9  UNK   900      10.344  47.426  10.103  1.00  0.00    -0.028 C 
HETATM   13  C10 UNK   900      11.155  46.627   9.278  1.00  0.00    -0.031 C 
HETATM   14  C11 UNK   900      10.949  45.227   9.001  1.00  0.00     0.021 C 
HETATM   15  C12 UNK   900      10.454  45.083   7.594  1.00  0.00     0.004 C 
HETATM   16  C13 UNK   900      12.114  44.300   9.142  1.00  0.00     0.006 C 
HETATM   17  C24 UNK   900       9.892  44.613  10.047  1.00  0.00     0.036 C 
HETATM   18  C14 UNK   900      11.782  43.324  10.205  1.00  0.00     0.025 C 
HETATM   19  C15 UNK   900      10.669  42.270   9.644  1.00  0.00     0.107 C 
HETATM   20  C22 UNK   900       9.554  43.365   8.990  1.00  0.00     0.025 C 
HETATM   21  C23 UNK   900       8.375  42.734   9.881  1.00  0.00     0.002 C 
HETATM   22  C25 UNK   900       8.688  45.667   9.525  1.00  0.00     0.157 C 
HETATM   23  O3  UNK   900       7.634  45.028  10.386  1.00  0.00    -0.223 OA
BRANCH  19  24
HETATM   24  N3  UNK   900      11.433  42.108   8.284  1.00  0.00    -0.236 NA
HETATM   25  C16 UNK   900      12.163  40.934   8.083  1.00  0.00     0.275 C 
HETATM   26  O2  UNK   900      11.476  39.887   8.283  1.00  0.00    -0.266 OA
BRANCH  25  27
HETATM   27  C17 UNK   900      13.622  40.773   8.145  1.00  0.00     0.061 C 
HETATM   28  C18 UNK   900      14.466  41.805   7.736  1.00  0.00     0.025 C 
HETATM   29  C19 UNK   900      15.561  41.549   6.915  1.00  0.00     0.099 C 
HETATM   30  N4  UNK   900      15.711  40.340   6.318  1.00  0.00    -0.242 NA
HETATM   31  C20 UNK   900      15.218  39.307   7.048  1.00  0.00     0.099 C 
HETATM   32  C21 UNK   900      14.247  39.534   8.022  1.00  0.00     0.025 C 
ENDBRANCH  25  27
ENDBRANCH  19  24
ENDBRANCH   9  11
ENDBRANCH   6   9
ENDBRANCH   4   5
ENDBRANCH   1   4
TORSDOF 6
ENDMDL
