MODEL 1
REMARK VINA RESULT:      -7.8      0.000      0.000
REMARK  12 active torsions:
REMARK  status: ('A' for Active; 'I' for Inactive)
REMARK    1  A    between atoms: O1_2  and  C2_3 
REMARK    2  A    between atoms: C5_6  and  C6_7 
REMARK    3  A    between atoms: C6_7  and  C7_8 
REMARK    4  A    between atoms: C7_8  and  O2_9 
REMARK    5  A    between atoms: O2_9  and  C8_10 
REMARK    6  A    between atoms: C11_13  and  C12_14 
REMARK    7  A    between atoms: C12_14  and  C13_15 
REMARK    8  A    between atoms: C12_14  and  C15_19 
REMARK    9  A    between atoms: C13_15  and  C14_16 
REMARK   10  A    between atoms: C16_21  and  C17_22 
REMARK   11  A    between atoms: C17_22  and  N2_23 
REMARK   12  A    between atoms: C27_35  and  O7_36 
ROOT
HETATM    1  C12 UNK   900      11.768  43.806   7.031  1.00  0.00     0.079 C 
ENDROOT
BRANCH   1   2
HETATM    2  C11 UNK   900      10.826  44.738   7.987  1.00  0.00    -0.014 C 
HETATM    3  C10 UNK   900      10.035  45.621   7.261  1.00  0.00    -0.002 C 
HETATM    4  C9  UNK   900       9.496  46.706   7.939  1.00  0.00     0.026 C 
HETATM    5  C8  UNK   900       9.760  46.868   9.293  1.00  0.00     0.116 C 
HETATM    6  C27 UNK   900      10.586  45.975   9.958  1.00  0.00     0.116 C 
HETATM    7  C26 UNK   900      11.381  45.185   9.136  1.00  0.00     0.022 C 
BRANCH   5   8
HETATM    8  O2  UNK   900       9.222  47.989   9.911  1.00  0.00    -0.329 OA
BRANCH   8   9
HETATM    9  C7  UNK   900       7.886  47.923  10.353  1.00  0.00     0.154 C 
BRANCH   9  10
HETATM   10  C6  UNK   900       7.879  48.073  11.850  1.00  0.00     0.059 C 
BRANCH  10  11
HETATM   11  C5  UNK   900       6.477  48.106  12.378  1.00  0.00    -0.019 C 
HETATM   12  C4  UNK   900       6.079  47.191  13.344  1.00  0.00    -0.002 C 
HETATM   13  C3  UNK   900       4.838  46.565  13.292  1.00  0.00     0.024 C 
HETATM   14  C2  UNK   900       3.968  46.829  12.240  1.00  0.00     0.094 C 
HETATM   15  C30 UNK   900       4.201  48.036  11.591  1.00  0.00     0.024 C 
HETATM   16  C29 UNK   900       5.448  48.650  11.618  1.00  0.00    -0.002 C 
BRANCH  14  17
HETATM   17  O1  UNK   900       3.267  45.786  11.627  1.00  0.00    -0.328 OA
HETATM   18  C1  UNK   900       2.554  45.287  11.924  1.00  0.00     0.181 C 
ENDBRANCH  14  17
ENDBRANCH  10  11
ENDBRANCH   9  10
ENDBRANCH   8   9
ENDBRANCH   5   8
BRANCH   6  19
HETATM   19  O7  UNK   900      11.165  46.410  11.153  1.00  0.00    -0.326 OA
HETATM   20  C28 UNK   900      12.460  46.985  11.177  1.00  0.00     0.181 C 
ENDBRANCH   6  19
ENDBRANCH   1   2
BRANCH   1  21
HETATM   21  C13 UNK   900      12.863  43.508   8.255  1.00  0.00     0.095 C 
BRANCH  21  22
HETATM   22  C14 UNK   900      14.157  43.615   7.509  1.00  0.00     0.244 C 
HETATM   23  N1  UNK   900      14.551  44.900   7.024  1.00  0.00    -0.061 NA
HETATM   24  O3  UNK   900      15.085  42.809   7.818  1.00  0.00    -0.276 OA
ENDBRANCH  21  22
ENDBRANCH   1  21
BRANCH   1  25
HETATM   25  C15 UNK   900      10.920  42.448   7.372  1.00  0.00     0.110 C 
HETATM   26  O4  UNK   900       9.872  42.687   8.134  1.00  0.00    -0.311 OA
HETATM   27  C16 UNK   900       9.035  41.689   8.342  1.00  0.00     0.103 C 
HETATM   28  C23 UNK   900       8.873  40.811   7.279  1.00  0.00     0.066 C 
HETATM   29  C24 UNK   900       9.843  40.651   6.310  1.00  0.00     0.224 C 
HETATM   30  O5  UNK   900       9.841  39.763   5.437  1.00  0.00    -0.284 OA
HETATM   31  C25 UNK   900      10.894  41.555   6.327  1.00  0.00     0.189 C 
HETATM   32  O6  UNK   900      12.157  41.220   5.829  1.00  0.00    -0.185 OA
BRANCH  27  33
HETATM   33  C17 UNK   900       8.549  41.374   9.720  1.00  0.00     0.149 C 
BRANCH  33  34
HETATM   34  N2  UNK   900       7.839  42.445  10.328  1.00  0.00    -0.363 N 
HETATM   35  C18 UNK   900       8.612  43.215  11.274  1.00  0.00     0.097 C 
HETATM   36  C19 UNK   900       7.732  44.333  11.823  1.00  0.00     0.024 C 
HETATM   37  C20 UNK   900       6.703  44.623  10.736  1.00  0.00     0.004 C 
HETATM   38  C21 UNK   900       5.731  43.450  10.783  1.00  0.00     0.024 C 
HETATM   39  C22 UNK   900       6.511  42.143  10.765  1.00  0.00     0.097 C 
ENDBRANCH  33  34
ENDBRANCH  27  33
ENDBRANCH   1  25
TORSDOF 12
ENDMDL
MODEL 2
REMARK VINA RESULT:      -7.5      2.880      8.606
REMARK  12 active torsions:
REMARK  status: ('A' for Active; 'I' for Inactive)
REMARK    1  A    between atoms: O1_2  and  C2_3 
REMARK    2  A    between atoms: C5_6  and  C6_7 
REMARK    3  A    between atoms: C6_7  and  C7_8 
REMARK    4  A    between atoms: C7_8  and  O2_9 
REMARK    5  A    between atoms: O2_9  and  C8_10 
REMARK    6  A    between atoms: C11_13  and  C12_14 
REMARK    7  A    between atoms: C12_14  and  C13_15 
REMARK    8  A    between atoms: C12_14  and  C15_19 
REMARK    9  A    between atoms: C13_15  and  C14_16 
REMARK   10  A    between atoms: C16_21  and  C17_22 
REMARK   11  A    between atoms: C17_22  and  N2_23 
REMARK   12  A    between atoms: C27_35  and  O7_36 
ROOT
HETATM    1  C12 UNK   900       9.471  40.900   9.868  1.00  0.00     0.079 C 
ENDROOT
BRANCH   1   2
HETATM    2  C11 UNK   900       9.200  40.079   8.482  1.00  0.00    -0.014 C 
HETATM    3  C10 UNK   900       9.461  38.719   8.607  1.00  0.00    -0.002 C 
HETATM    4  C9  UNK   900       9.645  37.991   7.438  1.00  0.00     0.026 C 
HETATM    5  C8  UNK   900       9.562  38.634   6.210  1.00  0.00     0.116 C 
HETATM    6  C27 UNK   900       9.334  40.000   6.148  1.00  0.00     0.116 C 
HETATM    7  C26 UNK   900       9.565  40.690   7.332  1.00  0.00     0.022 C 
BRANCH   5   8
HETATM    8  O2  UNK   900       9.787  37.863   5.077  1.00  0.00    -0.329 OA
BRANCH   8   9
HETATM    9  C7  UNK   900      11.005  37.162   4.987  1.00  0.00     0.154 C 
BRANCH   9  10
HETATM   10  C6  UNK   900      12.047  38.098   4.436  1.00  0.00     0.059 C 
BRANCH  10  11
HETATM   11  C5  UNK   900      13.263  38.118   5.309  1.00  0.00    -0.019 C 
HETATM   12  C4  UNK   900      13.172  38.587   6.614  1.00  0.00    -0.002 C 
HETATM   13  C3  UNK   900      14.150  39.405   7.168  1.00  0.00     0.024 C 
HETATM   14  C2  UNK   900      15.246  39.797   6.405  1.00  0.00     0.094 C 
HETATM   15  C30 UNK   900      15.519  38.967   5.324  1.00  0.00     0.024 C 
HETATM   16  C29 UNK   900      14.535  38.168   4.751  1.00  0.00    -0.002 C 
BRANCH  14  17
HETATM   17  O1  UNK   900      15.702  41.118   6.455  1.00  0.00    -0.328 OA
HETATM   18  C1  UNK   900      15.279  41.888   6.726  1.00  0.00     0.181 C 
ENDBRANCH  14  17
ENDBRANCH  10  11
ENDBRANCH   9  10
ENDBRANCH   8   9
ENDBRANCH   5   8
BRANCH   6  19
HETATM   19  O7  UNK   900       9.696  40.654   4.967  1.00  0.00    -0.326 OA
HETATM   20  C28 UNK   900      10.702  41.652   4.955  1.00  0.00     0.181 C 
ENDBRANCH   6  19
ENDBRANCH   1   2
BRANCH   1  21
HETATM   21  C13 UNK   900      10.319  42.106   9.088  1.00  0.00     0.095 C 
BRANCH  21  22
HETATM   22  C14 UNK   900      11.549  42.185   9.939  1.00  0.00     0.244 C 
HETATM   23  N1  UNK   900      12.805  42.390   9.292  1.00  0.00    -0.061 NA
HETATM   24  O3  UNK   900      11.425  42.647  11.112  1.00  0.00    -0.276 OA
ENDBRANCH  21  22
ENDBRANCH   1  21
BRANCH   1  25
HETATM   25  C15 UNK   900       8.063  41.729   9.754  1.00  0.00     0.110 C 
HETATM   26  O4  UNK   900       8.233  42.944   9.275  1.00  0.00    -0.311 OA
HETATM   27  C16 UNK   900       7.148  43.643   8.998  1.00  0.00     0.103 C 
HETATM   28  C23 UNK   900       6.067  42.909   8.529  1.00  0.00     0.066 C 
HETATM   29  C24 UNK   900       5.918  41.566   8.811  1.00  0.00     0.224 C 
HETATM   30  O5  UNK   900       4.896  40.895   8.574  1.00  0.00    -0.284 OA
HETATM   31  C25 UNK   900       6.999  40.932   9.405  1.00  0.00     0.189 C 
HETATM   32  O6  UNK   900       6.831  39.811  10.224  1.00  0.00    -0.185 OA
BRANCH  27  33
HETATM   33  C17 UNK   900       7.015  45.060   9.453  1.00  0.00     0.149 C 
BRANCH  33  34
HETATM   34  N2  UNK   900       6.260  45.201  10.649  1.00  0.00    -0.363 N 
HETATM   35  C18 UNK   900       5.362  46.331  10.660  1.00  0.00     0.097 C 
HETATM   36  C19 UNK   900       4.610  46.341  11.987  1.00  0.00     0.024 C 
HETATM   37  C20 UNK   900       4.571  44.890  12.452  1.00  0.00     0.004 C 
HETATM   38  C21 UNK   900       5.985  44.585  12.931  1.00  0.00     0.024 C 
HETATM   39  C22 UNK   900       6.986  45.019  11.868  1.00  0.00     0.097 C 
ENDBRANCH  33  34
ENDBRANCH  27  33
ENDBRANCH   1  25
TORSDOF 12
ENDMDL
MODEL 3
REMARK VINA RESULT:      -7.4      3.832      7.995
REMARK  12 active torsions:
REMARK  status: ('A' for Active; 'I' for Inactive)
REMARK    1  A    between atoms: O1_2  and  C2_3 
REMARK    2  A    between atoms: C5_6  and  C6_7 
REMARK    3  A    between atoms: C6_7  and  C7_8 
REMARK    4  A    between atoms: C7_8  and  O2_9 
REMARK    5  A    between atoms: O2_9  and  C8_10 
REMARK    6  A    between atoms: C11_13  and  C12_14 
REMARK    7  A    between atoms: C12_14  and  C13_15 
REMARK    8  A    between atoms: C12_14  and  C15_19 
REMARK    9  A    between atoms: C13_15  and  C14_16 
REMARK   10  A    between atoms: C16_21  and  C17_22 
REMARK   11  A    between atoms: C17_22  and  N2_23 
REMARK   12  A    between atoms: C27_35  and  O7_36 
ROOT
HETATM    1  C12 UNK   900       8.342  46.722   9.014  1.00  0.00     0.079 C 
ENDROOT
BRANCH   1   2
HETATM    2  C11 UNK   900       9.534  47.443   9.867  1.00  0.00    -0.014 C 
HETATM    3  C10 UNK   900       9.530  48.827   9.727  1.00  0.00    -0.002 C 
HETATM    4  C9  UNK   900      10.690  49.510  10.070  1.00  0.00     0.026 C 
HETATM    5  C8  UNK   900      11.791  48.802  10.532  1.00  0.00     0.116 C 
HETATM    6  C27 UNK   900      11.750  47.418  10.618  1.00  0.00     0.116 C 
HETATM    7  C26 UNK   900      10.731  46.814   9.891  1.00  0.00     0.022 C 
BRANCH   5   8
HETATM    8  O2  UNK   900      12.934  49.533  10.828  1.00  0.00    -0.329 OA
BRANCH   8   9
HETATM    9  C7  UNK   900      13.876  49.731   9.800  1.00  0.00     0.154 C 
BRANCH   9  10
HETATM   10  C6  UNK   900      13.815  51.174   9.378  1.00  0.00     0.059 C 
BRANCH  10  11
HETATM   11  C5  UNK   900      15.187  51.767   9.297  1.00  0.00    -0.019 C 
HETATM   12  C4  UNK   900      16.260  50.979   8.895  1.00  0.00    -0.002 C 
HETATM   13  C3  UNK   900      17.497  51.051   9.525  1.00  0.00     0.024 C 
HETATM   14  C2  UNK   900      17.681  51.909  10.604  1.00  0.00     0.094 C 
HETATM   15  C30 UNK   900      16.773  52.961  10.663  1.00  0.00     0.024 C 
HETATM   16  C29 UNK   900      15.524  52.881  10.057  1.00  0.00    -0.002 C 
BRANCH  14  17
HETATM   17  O1  UNK   900      18.388  51.481  11.732  1.00  0.00    -0.328 OA
HETATM   18  C1  UNK   900      18.556  50.634  12.048  1.00  0.00     0.181 C 
ENDBRANCH  14  17
ENDBRANCH  10  11
ENDBRANCH   9  10
ENDBRANCH   8   9
ENDBRANCH   5   8
BRANCH   6  19
HETATM   19  O7  UNK   900      12.974  46.745  10.653  1.00  0.00    -0.326 OA
HETATM   20  C28 UNK   900      13.041  45.351  10.900  1.00  0.00     0.181 C 
ENDBRANCH   6  19
ENDBRANCH   1   2
BRANCH   1  21
HETATM   21  C13 UNK   900       8.959  45.194   9.281  1.00  0.00     0.095 C 
BRANCH  21  22
HETATM   22  C14 UNK   900       8.691  44.545   7.959  1.00  0.00     0.244 C 
HETATM   23  N1  UNK   900       9.506  44.919   6.847  1.00  0.00    -0.061 NA
HETATM   24  O3  UNK   900       8.232  43.364   7.963  1.00  0.00    -0.276 OA
ENDBRANCH  21  22
ENDBRANCH   1  21
BRANCH   1  25
HETATM   25  C15 UNK   900       7.354  46.620  10.316  1.00  0.00     0.110 C 
HETATM   26  O4  UNK   900       7.917  45.985  11.325  1.00  0.00    -0.311 OA
HETATM   27  C16 UNK   900       7.268  45.981  12.474  1.00  0.00     0.103 C 
HETATM   28  C23 UNK   900       6.543  47.131  12.758  1.00  0.00     0.066 C 
HETATM   29  C24 UNK   900       6.091  47.973  11.762  1.00  0.00     0.224 C 
HETATM   30  O5  UNK   900       5.294  48.915  11.931  1.00  0.00    -0.284 OA
HETATM   31  C25 UNK   900       6.569  47.735  10.482  1.00  0.00     0.189 C 
HETATM   32  O6  UNK   900       5.832  48.089   9.348  1.00  0.00    -0.185 OA
BRANCH  27  33
HETATM   33  C17 UNK   900       7.090  44.714  13.246  1.00  0.00     0.149 C 
BRANCH  33  34
HETATM   34  N2  UNK   900       6.275  43.757  12.582  1.00  0.00    -0.363 N 
HETATM   35  C18 UNK   900       5.258  43.158  13.414  1.00  0.00     0.097 C 
HETATM   36  C19 UNK   900       4.454  42.177  12.566  1.00  0.00     0.024 C 
HETATM   37  C20 UNK   900       4.556  42.686  11.133  1.00  0.00     0.004 C 
HETATM   38  C21 UNK   900       5.975  42.349  10.689  1.00  0.00     0.024 C 
HETATM   39  C22 UNK   900       6.965  42.829  11.741  1.00  0.00     0.097 C 
ENDBRANCH  33  34
ENDBRANCH  27  33
ENDBRANCH   1  25
TORSDOF 12
ENDMDL
MODEL 4
REMARK VINA RESULT:      -7.3      6.366     11.930
REMARK  12 active torsions:
REMARK  status: ('A' for Active; 'I' for Inactive)
REMARK    1  A    between atoms: O1_2  and  C2_3 
REMARK    2  A    between atoms: C5_6  and  C6_7 
REMARK    3  A    between atoms: C6_7  and  C7_8 
REMARK    4  A    between atoms: C7_8  and  O2_9 
REMARK    5  A    between atoms: O2_9  and  C8_10 
REMARK    6  A    between atoms: C11_13  and  C12_14 
REMARK    7  A    between atoms: C12_14  and  C13_15 
REMARK    8  A    between atoms: C12_14  and  C15_19 
REMARK    9  A    between atoms: C13_15  and  C14_16 
REMARK   10  A    between atoms: C16_21  and  C17_22 
REMARK   11  A    between atoms: C17_22  and  N2_23 
REMARK   12  A    between atoms: C27_35  and  O7_36 
ROOT
HETATM    1  C12 UNK   900      10.860  39.364   5.531  1.00  0.00     0.079 C 
ENDROOT
BRANCH   1   2
HETATM    2  C11 UNK   900      11.247  37.781   5.649  1.00  0.00    -0.014 C 
HETATM    3  C10 UNK   900      10.860  37.051   4.530  1.00  0.00    -0.002 C 
HETATM    4  C9  UNK   900      10.776  35.671   4.661  1.00  0.00     0.026 C 
HETATM    5  C8  UNK   900      11.077  35.079   5.881  1.00  0.00     0.116 C 
HETATM    6  C27 UNK   900      11.424  35.861   6.973  1.00  0.00     0.116 C 
HETATM    7  C26 UNK   900      11.093  37.206   6.863  1.00  0.00     0.022 C 
BRANCH   5   8
HETATM    8  O2  UNK   900      10.944  33.700   5.963  1.00  0.00    -0.329 OA
BRANCH   8   9
HETATM    9  C7  UNK   900       9.652  33.152   5.841  1.00  0.00     0.154 C 
BRANCH   9  10
HETATM   10  C6  UNK   900       9.595  32.363   4.562  1.00  0.00     0.059 C 
BRANCH  10  11
HETATM   11  C5  UNK   900       8.692  31.177   4.705  1.00  0.00    -0.019 C 
HETATM   12  C4  UNK   900       8.417  30.663   5.966  1.00  0.00    -0.002 C 
HETATM   13  C3  UNK   900       8.381  29.294   6.208  1.00  0.00     0.024 C 
HETATM   14  C2  UNK   900       8.650  28.397   5.178  1.00  0.00     0.094 C 
HETATM   15  C30 UNK   900       8.463  28.916   3.902  1.00  0.00     0.024 C 
HETATM   16  C29 UNK   900       8.525  30.283   3.653  1.00  0.00    -0.002 C 
BRANCH  14  17
HETATM   17  O1  UNK   900       9.460  27.282   5.410  1.00  0.00    -0.328 OA
HETATM   18  C1  UNK   900       9.859  26.981   6.182  1.00  0.00     0.181 C 
ENDBRANCH  14  17
ENDBRANCH  10  11
ENDBRANCH   9  10
ENDBRANCH   8   9
ENDBRANCH   5   8
BRANCH   6  19
HETATM   19  O7  UNK   900      11.281  35.286   8.239  1.00  0.00    -0.326 OA
HETATM   20  C28 UNK   900      10.043  35.322   8.928  1.00  0.00     0.181 C 
ENDBRANCH   6  19
ENDBRANCH   1   2
BRANCH   1  21
HETATM   21  C13 UNK   900      10.343  39.442   7.116  1.00  0.00     0.095 C 
BRANCH  21  22
HETATM   22  C14 UNK   900       9.266  40.477   7.011  1.00  0.00     0.244 C 
HETATM   23  N1  UNK   900       8.187  40.423   7.946  1.00  0.00    -0.061 NA
HETATM   24  O3  UNK   900       9.586  41.621   6.570  1.00  0.00    -0.276 OA
ENDBRANCH  21  22
ENDBRANCH   1  21
BRANCH   1  25
HETATM   25  C15 UNK   900      12.371  39.852   5.933  1.00  0.00     0.110 C 
HETATM   26  O4  UNK   900      12.550  39.909   7.237  1.00  0.00    -0.311 OA
HETATM   27  C16 UNK   900      13.775  40.142   7.670  1.00  0.00     0.103 C 
HETATM   28  C23 UNK   900      14.795  39.599   6.901  1.00  0.00     0.066 C 
HETATM   29  C24 UNK   900      14.626  39.309   5.562  1.00  0.00     0.224 C 
HETATM   30  O5  UNK   900      15.540  38.989   4.779  1.00  0.00    -0.284 OA
HETATM   31  C25 UNK   900      13.332  39.386   5.068  1.00  0.00     0.189 C 
HETATM   32  O6  UNK   900      13.078  39.672   3.723  1.00  0.00    -0.185 OA
BRANCH  27  33
HETATM   33  C17 UNK   900      14.029  41.167   8.726  1.00  0.00     0.149 C 
BRANCH  33  34
HETATM   34  N2  UNK   900      14.077  42.497   8.225  1.00  0.00    -0.363 N 
HETATM   35  C18 UNK   900      12.798  43.030   7.822  1.00  0.00     0.097 C 
HETATM   36  C19 UNK   900      13.001  44.460   7.331  1.00  0.00     0.024 C 
HETATM   37  C20 UNK   900      14.239  44.976   8.058  1.00  0.00     0.004 C 
HETATM   38  C21 UNK   900      15.416  44.276   7.388  1.00  0.00     0.024 C 
HETATM   39  C22 UNK   900      15.143  42.780   7.314  1.00  0.00     0.097 C 
ENDBRANCH  33  34
ENDBRANCH  27  33
ENDBRANCH   1  25
TORSDOF 12
ENDMDL
MODEL 5
REMARK VINA RESULT:      -7.3      2.868      9.293
REMARK  12 active torsions:
REMARK  status: ('A' for Active; 'I' for Inactive)
REMARK    1  A    between atoms: O1_2  and  C2_3 
REMARK    2  A    between atoms: C5_6  and  C6_7 
REMARK    3  A    between atoms: C6_7  and  C7_8 
REMARK    4  A    between atoms: C7_8  and  O2_9 
REMARK    5  A    between atoms: O2_9  and  C8_10 
REMARK    6  A    between atoms: C11_13  and  C12_14 
REMARK    7  A    between atoms: C12_14  and  C13_15 
REMARK    8  A    between atoms: C12_14  and  C15_19 
REMARK    9  A    between atoms: C13_15  and  C14_16 
REMARK   10  A    between atoms: C16_21  and  C17_22 
REMARK   11  A    between atoms: C17_22  and  N2_23 
REMARK   12  A    between atoms: C27_35  and  O7_36 
ROOT
HETATM    1  C12 UNK   900       8.853  44.156   9.887  1.00  0.00     0.079 C 
ENDROOT
BRANCH   1   2
HETATM    2  C11 UNK   900       9.832  43.260   8.935  1.00  0.00    -0.014 C 
HETATM    3  C10 UNK   900       9.839  43.696   7.614  1.00  0.00    -0.002 C 
HETATM    4  C9  UNK   900      10.305  42.813   6.649  1.00  0.00     0.026 C 
HETATM    5  C8  UNK   900      10.741  41.550   7.029  1.00  0.00     0.116 C 
HETATM    6  C27 UNK   900      10.677  41.156   8.357  1.00  0.00     0.116 C 
HETATM    7  C26 UNK   900       9.844  41.926   9.160  1.00  0.00     0.022 C 
BRANCH   5   8
HETATM    8  O2  UNK   900      11.164  40.698   6.018  1.00  0.00    -0.329 OA
BRANCH   8   9
HETATM    9  C7  UNK   900      12.550  40.515   5.845  1.00  0.00     0.154 C 
BRANCH   9  10
HETATM   10  C6  UNK   900      12.774  39.843   4.517  1.00  0.00     0.059 C 
BRANCH  10  11
HETATM   11  C5  UNK   900      12.837  38.355   4.674  1.00  0.00    -0.019 C 
HETATM   12  C4  UNK   900      11.697  37.587   4.471  1.00  0.00    -0.002 C 
HETATM   13  C3  UNK   900      11.370  36.526   5.307  1.00  0.00     0.024 C 
HETATM   14  C2  UNK   900      12.180  36.222   6.397  1.00  0.00     0.094 C 
HETATM   15  C30 UNK   900      13.485  36.689   6.290  1.00  0.00     0.024 C 
HETATM   16  C29 UNK   900      13.810  37.768   5.476  1.00  0.00    -0.002 C 
BRANCH  14  17
HETATM   17  O1  UNK   900      11.607  35.909   7.633  1.00  0.00    -0.328 OA
HETATM   18  C1  UNK   900      10.735  35.725   7.861  1.00  0.00     0.181 C 
ENDBRANCH  14  17
ENDBRANCH  10  11
ENDBRANCH   9  10
ENDBRANCH   8   9
ENDBRANCH   5   8
BRANCH   6  19
HETATM   19  O7  UNK   900      10.697  39.783   8.616  1.00  0.00    -0.326 OA
HETATM   20  C28 UNK   900       9.537  39.101   9.063  1.00  0.00     0.181 C 
ENDBRANCH   6  19
ENDBRANCH   1   2
BRANCH   1  21
HETATM   21  C13 UNK   900       8.998  43.103  11.174  1.00  0.00     0.095 C 
BRANCH  21  22
HETATM   22  C14 UNK   900       7.665  43.276  11.833  1.00  0.00     0.244 C 
HETATM   23  N1  UNK   900       6.572  42.488  11.360  1.00  0.00    -0.061 NA
HETATM   24  O3  UNK   900       7.650  43.603  13.057  1.00  0.00    -0.276 OA
ENDBRANCH  21  22
ENDBRANCH   1  21
BRANCH   1  25
HETATM   25  C15 UNK   900      10.087  45.086  10.427  1.00  0.00     0.110 C 
HETATM   26  O4  UNK   900      11.252  44.711   9.937  1.00  0.00    -0.311 OA
HETATM   27  C16 UNK   900      12.291  45.485  10.186  1.00  0.00     0.103 C 
HETATM   28  C23 UNK   900      12.023  46.847  10.244  1.00  0.00     0.066 C 
HETATM   29  C24 UNK   900      10.767  47.332  10.547  1.00  0.00     0.224 C 
HETATM   30  O5  UNK   900      10.501  48.524  10.787  1.00  0.00    -0.284 OA
HETATM   31  C25 UNK   900       9.736  46.406  10.585  1.00  0.00     0.189 C 
HETATM   32  O6  UNK   900       8.602  46.604  11.379  1.00  0.00    -0.185 OA
BRANCH  27  33
HETATM   33  C17 UNK   900      13.579  44.903  10.668  1.00  0.00     0.149 C 
BRANCH  33  34
HETATM   34  N2  UNK   900      14.594  44.872   9.673  1.00  0.00    -0.363 N 
HETATM   35  C18 UNK   900      15.453  46.032   9.658  1.00  0.00     0.097 C 
HETATM   36  C19 UNK   900      16.499  45.848   8.563  1.00  0.00     0.024 C 
HETATM   37  C20 UNK   900      16.667  44.341   8.399  1.00  0.00     0.004 C 
HETATM   38  C21 UNK   900      15.411  43.875   7.673  1.00  0.00     0.024 C 
HETATM   39  C22 UNK   900      14.181  44.433   8.376  1.00  0.00     0.097 C 
ENDBRANCH  33  34
ENDBRANCH  27  33
ENDBRANCH   1  25
TORSDOF 12
ENDMDL
MODEL 6
REMARK VINA RESULT:      -7.3      2.796      7.066
REMARK  12 active torsions:
REMARK  status: ('A' for Active; 'I' for Inactive)
REMARK    1  A    between atoms: O1_2  and  C2_3 
REMARK    2  A    between atoms: C5_6  and  C6_7 
REMARK    3  A    between atoms: C6_7  and  C7_8 
REMARK    4  A    between atoms: C7_8  and  O2_9 
REMARK    5  A    between atoms: O2_9  and  C8_10 
REMARK    6  A    between atoms: C11_13  and  C12_14 
REMARK    7  A    between atoms: C12_14  and  C13_15 
REMARK    8  A    between atoms: C12_14  and  C15_19 
REMARK    9  A    between atoms: C13_15  and  C14_16 
REMARK   10  A    between atoms: C16_21  and  C17_22 
REMARK   11  A    between atoms: C17_22  and  N2_23 
REMARK   12  A    between atoms: C27_35  and  O7_36 
ROOT
HETATM    1  C12 UNK   900       7.496  43.427   8.298  1.00  0.00     0.079 C 
ENDROOT
BRANCH   1   2
HETATM    2  C11 UNK   900       9.077  43.031   8.193  1.00  0.00    -0.014 C 
HETATM    3  C10 UNK   900       9.768  43.829   7.287  1.00  0.00    -0.002 C 
HETATM    4  C9  UNK   900      10.991  43.362   6.822  1.00  0.00     0.026 C 
HETATM    5  C8  UNK   900      11.472  42.138   7.270  1.00  0.00     0.116 C 
HETATM    6  C27 UNK   900      10.722  41.368   8.146  1.00  0.00     0.116 C 
HETATM    7  C26 UNK   900       9.379  41.714   8.232  1.00  0.00     0.022 C 
BRANCH   5   8
HETATM    8  O2  UNK   900      12.683  41.706   6.746  1.00  0.00    -0.329 OA
BRANCH   8   9
HETATM    9  C7  UNK   900      13.851  42.392   7.129  1.00  0.00     0.154 C 
BRANCH   9  10
HETATM   10  C6  UNK   900      14.147  42.051   8.565  1.00  0.00     0.059 C 
BRANCH  10  11
HETATM   11  C5  UNK   900      14.118  43.278   9.423  1.00  0.00    -0.019 C 
HETATM   12  C4  UNK   900      12.992  43.565  10.184  1.00  0.00    -0.002 C 
HETATM   13  C3  UNK   900      12.490  44.858  10.289  1.00  0.00     0.024 C 
HETATM   14  C2  UNK   900      13.101  45.901   9.602  1.00  0.00     0.094 C 
HETATM   15  C30 UNK   900      14.426  45.662   9.256  1.00  0.00     0.024 C 
HETATM   16  C29 UNK   900      14.924  44.371   9.123  1.00  0.00    -0.002 C 
BRANCH  14  17
HETATM   17  O1  UNK   900      12.326  46.857   8.938  1.00  0.00    -0.328 OA
HETATM   18  C1  UNK   900      12.339  47.775   8.982  1.00  0.00     0.181 C 
ENDBRANCH  14  17
ENDBRANCH  10  11
ENDBRANCH   9  10
ENDBRANCH   8   9
ENDBRANCH   5   8
BRANCH   6  19
HETATM   19  O7  UNK   900      11.020  40.004   8.212  1.00  0.00    -0.326 OA
HETATM   20  C28 UNK   900       9.994  39.027   8.230  1.00  0.00     0.181 C 
ENDBRANCH   6  19
ENDBRANCH   1   2
BRANCH   1  21
HETATM   21  C13 UNK   900       7.108  42.014   9.098  1.00  0.00     0.095 C 
BRANCH  21  22
HETATM   22  C14 UNK   900       5.701  41.801   8.632  1.00  0.00     0.244 C 
HETATM   23  N1  UNK   900       4.991  40.666   9.129  1.00  0.00    -0.061 NA
HETATM   24  O3  UNK   900       5.015  42.825   8.340  1.00  0.00    -0.276 OA
ENDBRANCH  21  22
ENDBRANCH   1  21
BRANCH   1  25
HETATM   25  C15 UNK   900       7.704  44.240   9.704  1.00  0.00     0.110 C 
HETATM   26  O4  UNK   900       8.036  43.444  10.701  1.00  0.00    -0.311 OA
HETATM   27  C16 UNK   900       8.377  44.012  11.842  1.00  0.00     0.103 C 
HETATM   28  C23 UNK   900       9.049  45.222  11.730  1.00  0.00     0.066 C 
HETATM   29  C24 UNK   900       8.923  46.029  10.617  1.00  0.00     0.224 C 
HETATM   30  O5  UNK   900       9.352  47.194  10.527  1.00  0.00    -0.284 OA
HETATM   31  C25 UNK   900       8.262  45.483   9.527  1.00  0.00     0.189 C 
HETATM   32  O6  UNK   900       7.585  46.287   8.604  1.00  0.00    -0.185 OA
BRANCH  27  33
HETATM   33  C17 UNK   900       7.805  43.532  13.136  1.00  0.00     0.149 C 
BRANCH  33  34
HETATM   34  N2  UNK   900       6.385  43.460  13.134  1.00  0.00    -0.363 N 
HETATM   35  C18 UNK   900       5.846  42.309  12.449  1.00  0.00     0.097 C 
HETATM   36  C19 UNK   900       4.324  42.354  12.550  1.00  0.00     0.024 C 
HETATM   37  C20 UNK   900       4.016  43.131  13.825  1.00  0.00     0.004 C 
HETATM   38  C21 UNK   900       4.321  44.586  13.491  1.00  0.00     0.024 C 
HETATM   39  C22 UNK   900       5.700  44.683  12.854  1.00  0.00     0.097 C 
ENDBRANCH  33  34
ENDBRANCH  27  33
ENDBRANCH   1  25
TORSDOF 12
ENDMDL
MODEL 7
REMARK VINA RESULT:      -7.2      8.001     12.137
REMARK  12 active torsions:
REMARK  status: ('A' for Active; 'I' for Inactive)
REMARK    1  A    between atoms: O1_2  and  C2_3 
REMARK    2  A    between atoms: C5_6  and  C6_7 
REMARK    3  A    between atoms: C6_7  and  C7_8 
REMARK    4  A    between atoms: C7_8  and  O2_9 
REMARK    5  A    between atoms: O2_9  and  C8_10 
REMARK    6  A    between atoms: C11_13  and  C12_14 
REMARK    7  A    between atoms: C12_14  and  C13_15 
REMARK    8  A    between atoms: C12_14  and  C15_19 
REMARK    9  A    between atoms: C13_15  and  C14_16 
REMARK   10  A    between atoms: C16_21  and  C17_22 
REMARK   11  A    between atoms: C17_22  and  N2_23 
REMARK   12  A    between atoms: C27_35  and  O7_36 
ROOT
HETATM    1  C12 UNK   900      11.295  32.809   8.220  1.00  0.00     0.079 C 
ENDROOT
BRANCH   1   2
HETATM    2  C11 UNK   900      10.588  34.007   7.364  1.00  0.00    -0.014 C 
HETATM    3  C10 UNK   900      10.848  33.915   6.001  1.00  0.00    -0.002 C 
HETATM    4  C9  UNK   900      10.644  35.053   5.231  1.00  0.00     0.026 C 
HETATM    5  C8  UNK   900      10.195  36.219   5.836  1.00  0.00     0.116 C 
HETATM    6  C27 UNK   900       9.986  36.262   7.207  1.00  0.00     0.116 C 
HETATM    7  C26 UNK   900      10.589  35.237   7.926  1.00  0.00     0.022 C 
BRANCH   5   8
HETATM    8  O2  UNK   900      10.040  37.334   5.023  1.00  0.00    -0.329 OA
BRANCH   8   9
HETATM    9  C7  UNK   900      11.050  38.316   5.048  1.00  0.00     0.154 C 
BRANCH   9  10
HETATM   10  C6  UNK   900      12.176  37.854   4.163  1.00  0.00     0.059 C 
BRANCH  10  11
HETATM   11  C5  UNK   900      13.478  37.866   4.903  1.00  0.00    -0.019 C 
HETATM   12  C4  UNK   900      13.634  37.085   6.042  1.00  0.00    -0.002 C 
HETATM   13  C3  UNK   900      14.285  37.564   7.174  1.00  0.00     0.024 C 
HETATM   14  C2  UNK   900      14.778  38.865   7.197  1.00  0.00     0.094 C 
HETATM   15  C30 UNK   900      15.005  39.415   5.940  1.00  0.00     0.024 C 
HETATM   16  C29 UNK   900      14.335  38.956   4.811  1.00  0.00    -0.002 C 
BRANCH  14  17
HETATM   17  O1  UNK   900      14.606  39.663   8.331  1.00  0.00    -0.328 OA
HETATM   18  C1  UNK   900      13.958  40.284   8.534  1.00  0.00     0.181 C 
ENDBRANCH  14  17
ENDBRANCH  10  11
ENDBRANCH   9  10
ENDBRANCH   8   9
ENDBRANCH   5   8
BRANCH   6  19
HETATM   19  O7  UNK   900       9.974  37.523   7.810  1.00  0.00    -0.326 OA
HETATM   20  C28 UNK   900       8.774  38.088   8.309  1.00  0.00     0.181 C 
ENDBRANCH   6  19
ENDBRANCH   1   2
BRANCH   1  21
HETATM   21  C13 UNK   900      10.818  33.456   9.682  1.00  0.00     0.095 C 
BRANCH  21  22
HETATM   22  C14 UNK   900      11.893  32.937  10.586  1.00  0.00     0.244 C 
HETATM   23  N1  UNK   900      11.662  32.968  11.996  1.00  0.00    -0.061 NA
HETATM   24  O3  UNK   900      12.636  32.010  10.147  1.00  0.00    -0.276 OA
ENDBRANCH  21  22
ENDBRANCH   1  21
BRANCH   1  25
HETATM   25  C15 UNK   900       9.968  31.852   8.139  1.00  0.00     0.110 C 
HETATM   26  O4  UNK   900       8.847  32.541   8.203  1.00  0.00    -0.311 OA
HETATM   27  C16 UNK   900       7.721  31.886   7.993  1.00  0.00     0.103 C 
HETATM   28  C23 UNK   900       7.793  30.854   7.067  1.00  0.00     0.066 C 
HETATM   29  C24 UNK   900       8.979  30.210   6.780  1.00  0.00     0.224 C 
HETATM   30  O5  UNK   900       9.083  29.172   6.100  1.00  0.00    -0.284 OA
HETATM   31  C25 UNK   900      10.134  30.775   7.301  1.00  0.00     0.189 C 
HETATM   32  O6  UNK   900      11.266  30.003   7.580  1.00  0.00    -0.185 OA
BRANCH  27  33
HETATM   33  C17 UNK   900       6.556  32.055   8.912  1.00  0.00     0.149 C 
BRANCH  33  34
HETATM   34  N2  UNK   900       6.382  30.967   9.811  1.00  0.00    -0.363 N 
HETATM   35  C18 UNK   900       5.032  30.800  10.294  1.00  0.00     0.097 C 
HETATM   36  C19 UNK   900       4.995  29.591  11.223  1.00  0.00     0.024 C 
HETATM   37  C20 UNK   900       6.129  28.681  10.765  1.00  0.00     0.004 C 
HETATM   38  C21 UNK   900       7.406  29.364  11.239  1.00  0.00     0.024 C 
HETATM   39  C22 UNK   900       7.386  30.827  10.820  1.00  0.00     0.097 C 
ENDBRANCH  33  34
ENDBRANCH  27  33
ENDBRANCH   1  25
TORSDOF 12
ENDMDL
MODEL 8
REMARK VINA RESULT:      -7.2      3.003      7.895
REMARK  12 active torsions:
REMARK  status: ('A' for Active; 'I' for Inactive)
REMARK    1  A    between atoms: O1_2  and  C2_3 
REMARK    2  A    between atoms: C5_6  and  C6_7 
REMARK    3  A    between atoms: C6_7  and  C7_8 
REMARK    4  A    between atoms: C7_8  and  O2_9 
REMARK    5  A    between atoms: O2_9  and  C8_10 
REMARK    6  A    between atoms: C11_13  and  C12_14 
REMARK    7  A    between atoms: C12_14  and  C13_15 
REMARK    8  A    between atoms: C12_14  and  C15_19 
REMARK    9  A    between atoms: C13_15  and  C14_16 
REMARK   10  A    between atoms: C16_21  and  C17_22 
REMARK   11  A    between atoms: C17_22  and  N2_23 
REMARK   12  A    between atoms: C27_35  and  O7_36 
ROOT
HETATM    1  C12 UNK   900      13.114  48.841  10.237  1.00  0.00     0.079 C 
ENDROOT
BRANCH   1   2
HETATM    2  C11 UNK   900      13.753  47.545   9.473  1.00  0.00    -0.014 C 
HETATM    3  C10 UNK   900      14.771  46.942  10.204  1.00  0.00    -0.002 C 
HETATM    4  C9  UNK   900      15.638  46.099   9.522  1.00  0.00     0.026 C 
HETATM    5  C8  UNK   900      15.462  45.891   8.160  1.00  0.00     0.116 C 
HETATM    6  C27 UNK   900      14.450  46.548   7.476  1.00  0.00     0.116 C 
HETATM    7  C26 UNK   900      13.911  47.646   8.134  1.00  0.00     0.022 C 
BRANCH   5   8
HETATM    8  O2  UNK   900      16.378  45.065   7.523  1.00  0.00    -0.329 OA
BRANCH   8   9
HETATM    9  C7  UNK   900      16.497  43.737   7.976  1.00  0.00     0.154 C 
BRANCH   9  10
HETATM   10  C6  UNK   900      15.820  42.837   6.978  1.00  0.00     0.059 C 
BRANCH  10  11
HETATM   11  C5  UNK   900      14.482  42.391   7.481  1.00  0.00    -0.019 C 
HETATM   12  C4  UNK   900      14.227  41.038   7.668  1.00  0.00    -0.002 C 
HETATM   13  C3  UNK   900      13.016  40.463   7.298  1.00  0.00     0.024 C 
HETATM   14  C2  UNK   900      12.029  41.240   6.701  1.00  0.00     0.094 C 
HETATM   15  C30 UNK   900      12.140  42.603   6.954  1.00  0.00     0.024 C 
HETATM   16  C29 UNK   900      13.356  43.185   7.297  1.00  0.00    -0.002 C 
BRANCH  14  17
HETATM   17  O1  UNK   900      11.314  40.750   5.605  1.00  0.00    -0.328 OA
HETATM   18  C1  UNK   900      10.643  41.134   5.106  1.00  0.00     0.181 C 
ENDBRANCH  14  17
ENDBRANCH  10  11
ENDBRANCH   9  10
ENDBRANCH   8   9
ENDBRANCH   5   8
BRANCH   6  19
HETATM   19  O7  UNK   900      14.586  46.658   6.089  1.00  0.00    -0.326 OA
HETATM   20  C28 UNK   900      13.875  47.640   5.355  1.00  0.00     0.181 C 
ENDBRANCH   6  19
ENDBRANCH   1   2
BRANCH   1  21
HETATM   21  C13 UNK   900      13.125  49.770   8.851  1.00  0.00     0.095 C 
BRANCH  21  22
HETATM   22  C14 UNK   900      14.041  50.881   9.261  1.00  0.00     0.244 C 
HETATM   23  N1  UNK   900      13.811  52.181   8.717  1.00  0.00    -0.061 NA
HETATM   24  O3  UNK   900      14.554  50.826  10.419  1.00  0.00    -0.276 OA
ENDBRANCH  21  22
ENDBRANCH   1  21
BRANCH   1  25
HETATM   25  C15 UNK   900      11.576  48.347   9.971  1.00  0.00     0.110 C 
HETATM   26  O4  UNK   900      11.466  47.034   9.945  1.00  0.00    -0.311 OA
HETATM   27  C16 UNK   900      10.248  46.530   9.891  1.00  0.00     0.103 C 
HETATM   28  C23 UNK   900       9.272  47.247  10.570  1.00  0.00     0.066 C 
HETATM   29  C24 UNK   900       9.402  48.597  10.827  1.00  0.00     0.224 C 
HETATM   30  O5  UNK   900       8.499  49.330  11.269  1.00  0.00    -0.284 OA
HETATM   31  C25 UNK   900      10.641  49.162  10.564  1.00  0.00     0.189 C 
HETATM   32  O6  UNK   900      10.774  50.515  10.239  1.00  0.00    -0.185 OA
BRANCH  27  33
HETATM   33  C17 UNK   900       9.913  45.447   8.917  1.00  0.00     0.149 C 
BRANCH  33  34
HETATM   34  N2  UNK   900       9.926  44.146   9.490  1.00  0.00    -0.363 N 
HETATM   35  C18 UNK   900       8.619  43.608   9.784  1.00  0.00     0.097 C 
HETATM   36  C19 UNK   900       8.791  42.209  10.368  1.00  0.00     0.024 C 
HETATM   37  C20 UNK   900      10.106  41.682   9.804  1.00  0.00     0.004 C 
HETATM   38  C21 UNK   900      11.194  42.439  10.556  1.00  0.00     0.024 C 
HETATM   39  C22 UNK   900      10.894  43.931  10.522  1.00  0.00     0.097 C 
ENDBRANCH  33  34
ENDBRANCH  27  33
ENDBRANCH   1  25
TORSDOF 12
ENDMDL
MODEL 9
REMARK VINA RESULT:      -7.2      4.762      8.970
REMARK  12 active torsions:
REMARK  status: ('A' for Active; 'I' for Inactive)
REMARK    1  A    between atoms: O1_2  and  C2_3 
REMARK    2  A    between atoms: C5_6  and  C6_7 
REMARK    3  A    between atoms: C6_7  and  C7_8 
REMARK    4  A    between atoms: C7_8  and  O2_9 
REMARK    5  A    between atoms: O2_9  and  C8_10 
REMARK    6  A    between atoms: C11_13  and  C12_14 
REMARK    7  A    between atoms: C12_14  and  C13_15 
REMARK    8  A    between atoms: C12_14  and  C15_19 
REMARK    9  A    between atoms: C13_15  and  C14_16 
REMARK   10  A    between atoms: C16_21  and  C17_22 
REMARK   11  A    between atoms: C17_22  and  N2_23 
REMARK   12  A    between atoms: C27_35  and  O7_36 
ROOT
HETATM    1  C12 UNK   900      17.203  47.354   9.843  1.00  0.00     0.079 C 
ENDROOT
BRANCH   1   2
HETATM    2  C11 UNK   900      16.174  46.348   9.069  1.00  0.00    -0.014 C 
HETATM    3  C10 UNK   900      15.128  45.925   9.882  1.00  0.00    -0.002 C 
HETATM    4  C9  UNK   900      14.423  44.796   9.486  1.00  0.00     0.026 C 
HETATM    5  C8  UNK   900      14.780  44.141   8.314  1.00  0.00     0.116 C 
HETATM    6  C27 UNK   900      15.856  44.588   7.561  1.00  0.00     0.116 C 
HETATM    7  C26 UNK   900      16.724  45.445   8.227  1.00  0.00     0.022 C 
BRANCH   5   8
HETATM    8  O2  UNK   900      14.063  42.999   7.985  1.00  0.00    -0.329 OA
BRANCH   8   9
HETATM    9  C7  UNK   900      13.248  42.421   8.977  1.00  0.00     0.154 C 
BRANCH   9  10
HETATM   10  C6  UNK   900      11.810  42.644   8.594  1.00  0.00     0.059 C 
BRANCH  10  11
HETATM   11  C5  UNK   900      10.910  42.486   9.780  1.00  0.00    -0.019 C 
HETATM   12  C4  UNK   900       9.789  41.669   9.696  1.00  0.00    -0.002 C 
HETATM   13  C3  UNK   900       8.567  42.044  10.243  1.00  0.00     0.024 C 
HETATM   14  C2  UNK   900       8.435  43.277  10.875  1.00  0.00     0.094 C 
HETATM   15  C30 UNK   900       9.632  43.823  11.325  1.00  0.00     0.024 C 
HETATM   16  C29 UNK   900      10.852  43.470  10.761  1.00  0.00    -0.002 C 
BRANCH  14  17
HETATM   17  O1  UNK   900       7.304  44.066  10.647  1.00  0.00    -0.328 OA
HETATM   18  C1  UNK   900       7.199  44.836  10.155  1.00  0.00     0.181 C 
ENDBRANCH  14  17
ENDBRANCH  10  11
ENDBRANCH   9  10
ENDBRANCH   8   9
ENDBRANCH   5   8
BRANCH   6  19
HETATM   19  O7  UNK   900      16.438  43.676   6.677  1.00  0.00    -0.326 OA
HETATM   20  C28 UNK   900      17.258  42.618   7.143  1.00  0.00     0.181 C 
ENDBRANCH   6  19
ENDBRANCH   1   2
BRANCH   1  21
HETATM   21  C13 UNK   900      18.050  47.698   8.447  1.00  0.00     0.095 C 
BRANCH  21  22
HETATM   22  C14 UNK   900      19.410  47.987   9.005  1.00  0.00     0.244 C 
HETATM   23  N1  UNK   900      19.765  49.350   9.242  1.00  0.00    -0.061 NA
HETATM   24  O3  UNK   900      19.934  47.117   9.762  1.00  0.00    -0.276 OA
ENDBRANCH  21  22
ENDBRANCH   1  21
BRANCH   1  25
HETATM   25  C15 UNK   900      16.222  48.650   9.643  1.00  0.00     0.110 C 
HETATM   26  O4  UNK   900      16.151  49.037   8.385  1.00  0.00    -0.311 OA
HETATM   27  C16 UNK   900      15.271  49.975   8.090  1.00  0.00     0.103 C 
HETATM   28  C23 UNK   900      14.093  49.943   8.824  1.00  0.00     0.066 C 
HETATM   29  C24 UNK   900      14.027  49.365  10.076  1.00  0.00     0.224 C 
HETATM   30  O5  UNK   900      13.060  49.456  10.855  1.00  0.00    -0.284 OA
HETATM   31  C25 UNK   900      15.132  48.632  10.480  1.00  0.00     0.189 C 
HETATM   32  O6  UNK   900      15.453  48.477  11.833  1.00  0.00    -0.185 OA
BRANCH  27  33
HETATM   33  C17 UNK   900      15.658  51.149   7.251  1.00  0.00     0.149 C 
BRANCH  33  34
HETATM   34  N2  UNK   900      15.743  52.364   7.983  1.00  0.00    -0.363 N 
HETATM   35  C18 UNK   900      14.822  53.389   7.549  1.00  0.00     0.097 C 
HETATM   36  C19 UNK   900      15.011  54.617   8.434  1.00  0.00     0.024 C 
HETATM   37  C20 UNK   900      15.540  54.092   9.765  1.00  0.00     0.004 C 
HETATM   38  C21 UNK   900      16.990  53.711   9.496  1.00  0.00     0.024 C 
HETATM   39  C22 UNK   900      17.065  52.840   8.249  1.00  0.00     0.097 C 
ENDBRANCH  33  34
ENDBRANCH  27  33
ENDBRANCH   1  25
TORSDOF 12
ENDMDL
