MODEL 1
REMARK VINA RESULT:      -9.5      0.000      0.000
REMARK  8 active torsions:
REMARK  status: ('A' for Active; 'I' for Inactive)
REMARK    1  A    between atoms: C5_5  and  S1_6 
REMARK    2  A    between atoms: S1_6  and  N1_9 
REMARK    3  A    between atoms: N1_9  and  C6_10 
REMARK    4  A    between atoms: C6_10  and  C7_11 
REMARK    5  A    between atoms: C6_10  and  C14_18 
REMARK    6  A    between atoms: C7_11  and  C8_12 
REMARK    7  A    between atoms: C14_18  and  O4_20 
REMARK    8  A    between atoms: O4_20  and  C15_21 
ROOT
HETATM    1  C6  UNK   900       5.719  43.300  11.272  1.00  0.00     0.206 C 
ENDROOT
BRANCH   1   2
HETATM    2  N1  UNK   900       5.037  43.073  12.671  1.00  0.00    -0.176 NA
BRANCH   2   3
HETATM    3  S1  UNK   900       3.606  43.755  12.909  1.00  0.00     0.282 S 
HETATM    4  O1  UNK   900       2.685  43.479  14.009  1.00  0.00    -0.199 OA
HETATM    5  O2  UNK   900       2.705  43.686  11.688  1.00  0.00    -0.199 OA
BRANCH   3   6
HETATM    6  C5  UNK   900       3.923  45.504  12.987  1.00  0.00     0.105 C 
HETATM    7  C4  UNK   900       3.554  46.319  11.922  1.00  0.00     0.013 C 
HETATM    8  C3  UNK   900       4.191  47.539  11.720  1.00  0.00    -0.004 C 
HETATM    9  C2  UNK   900       5.484  47.665  12.215  1.00  0.00    -0.022 C 
HETATM   10  C1  UNK   900       6.566  48.333  11.439  1.00  0.00     0.031 C 
HETATM   11  C30 UNK   900       5.724  47.079  13.453  1.00  0.00    -0.004 C 
HETATM   12  C29 UNK   900       4.925  46.001  13.802  1.00  0.00     0.013 C 
ENDBRANCH   3   6
ENDBRANCH   2   3
ENDBRANCH   1   2
BRANCH   1  13
HETATM   13  C7  UNK   900       7.163  43.731  11.922  1.00  0.00     0.062 C 
BRANCH  13  14
HETATM   14  C8  UNK   900       7.682  44.837  11.045  1.00  0.00    -0.020 C 
HETATM   15  C9  UNK   900       7.177  45.047   9.766  1.00  0.00    -0.004 C 
HETATM   16  C10 UNK   900       7.971  45.014   8.634  1.00  0.00    -0.000 C 
HETATM   17  C11 UNK   900       9.329  45.100   8.755  1.00  0.00    -0.000 C 
HETATM   18  C12 UNK   900       9.831  45.328  10.031  1.00  0.00    -0.000 C 
HETATM   19  C13 UNK   900       9.036  45.148  11.160  1.00  0.00    -0.004 C 
ENDBRANCH  13  14
ENDBRANCH   1  13
BRANCH   1  20
HETATM   20  C14 UNK   900       6.123  41.737  11.067  1.00  0.00     0.300 C 
HETATM   21  O3  UNK   900       5.108  40.971  11.157  1.00  0.00    -0.262 OA
BRANCH  20  22
HETATM   22  O4  UNK   900       6.623  41.648   9.753  1.00  0.00    -0.275 OA
BRANCH  22  23
HETATM   23  C15 UNK   900       7.827  41.024   9.423  1.00  0.00     0.101 C 
HETATM   24  C16 UNK   900       9.070  41.553   9.748  1.00  0.00     0.025 C 
HETATM   25  C17 UNK   900      10.233  41.099   9.134  1.00  0.00     0.004 C 
HETATM   26  C18 UNK   900      10.074  40.503   7.893  1.00  0.00     0.019 C 
HETATM   27  C19 UNK   900      11.220  40.227   7.156  1.00  0.00    -0.019 C 
HETATM   28  C22 UNK   900       8.853  40.034   7.460  1.00  0.00     0.101 C 
HETATM   29  C20 UNK   900      10.986  39.740   5.876  1.00  0.00     0.037 C 
HETATM   30  C28 UNK   900      12.496  39.868   7.846  1.00  0.00     0.026 C 
HETATM   31  C21 UNK   900       9.684  39.611   5.429  1.00  0.00     0.296 C 
HETATM   32  C25 UNK   900      12.131  39.492   4.990  1.00  0.00     0.032 C 
HETATM   33  O5  UNK   900       9.491  39.760   4.196  1.00  0.00    -0.259 OA
HETATM   34  O6  UNK   900       8.697  39.458   6.291  1.00  0.00    -0.274 OA
HETATM   35  C26 UNK   900      13.299  38.849   5.692  1.00  0.00     0.005 C 
HETATM   36  C27 UNK   900      13.007  38.614   7.150  1.00  0.00     0.005 C 
HETATM   37  C23 UNK   900       7.761  40.209   8.301  1.00  0.00     0.024 C 
HETATM   38  C24 UNK   900       6.584  39.315   8.180  1.00  0.00     0.035 C 
ENDBRANCH  22  23
ENDBRANCH  20  22
ENDBRANCH   1  20
TORSDOF 8
ENDMDL
MODEL 2
REMARK VINA RESULT:      -9.2      1.416      1.974
REMARK  8 active torsions:
REMARK  status: ('A' for Active; 'I' for Inactive)
REMARK    1  A    between atoms: C5_5  and  S1_6 
REMARK    2  A    between atoms: S1_6  and  N1_9 
REMARK    3  A    between atoms: N1_9  and  C6_10 
REMARK    4  A    between atoms: C6_10  and  C7_11 
REMARK    5  A    between atoms: C6_10  and  C14_18 
REMARK    6  A    between atoms: C7_11  and  C8_12 
REMARK    7  A    between atoms: C14_18  and  O4_20 
REMARK    8  A    between atoms: O4_20  and  C15_21 
ROOT
HETATM    1  C6  UNK   900       5.592  43.205  10.773  1.00  0.00     0.206 C 
ENDROOT
BRANCH   1   2
HETATM    2  N1  UNK   900       5.375  43.090  12.326  1.00  0.00    -0.176 NA
BRANCH   2   3
HETATM    3  S1  UNK   900       3.918  43.448  12.892  1.00  0.00     0.282 S 
HETATM    4  O1  UNK   900       3.324  42.958  14.134  1.00  0.00    -0.199 OA
HETATM    5  O2  UNK   900       2.813  43.217  11.875  1.00  0.00    -0.199 OA
BRANCH   3   6
HETATM    6  C5  UNK   900       3.883  45.223  13.020  1.00  0.00     0.105 C 
HETATM    7  C4  UNK   900       3.337  45.977  11.987  1.00  0.00     0.013 C 
HETATM    8  C3  UNK   900       3.715  47.305  11.813  1.00  0.00    -0.004 C 
HETATM    9  C2  UNK   900       4.967  47.671  12.292  1.00  0.00    -0.022 C 
HETATM   10  C1  UNK   900       5.879  48.562  11.521  1.00  0.00     0.031 C 
HETATM   11  C30 UNK   900       5.345  47.110  13.507  1.00  0.00    -0.004 C 
HETATM   12  C29 UNK   900       4.783  45.885  13.835  1.00  0.00     0.013 C 
ENDBRANCH   3   6
ENDBRANCH   2   3
ENDBRANCH   1   2
BRANCH   1  13
HETATM   13  C7  UNK   900       7.187  43.568  10.913  1.00  0.00     0.062 C 
BRANCH  13  14
HETATM   14  C8  UNK   900       7.265  45.067  10.825  1.00  0.00    -0.020 C 
HETATM   15  C9  UNK   900       6.962  45.742   9.647  1.00  0.00    -0.004 C 
HETATM   16  C10 UNK   900       7.866  46.570   9.005  1.00  0.00    -0.000 C 
HETATM   17  C11 UNK   900       8.972  47.014   9.672  1.00  0.00    -0.000 C 
HETATM   18  C12 UNK   900       9.064  46.684  11.020  1.00  0.00    -0.000 C 
HETATM   19  C13 UNK   900       8.262  45.690  11.575  1.00  0.00    -0.004 C 
ENDBRANCH  13  14
ENDBRANCH   1  13
BRANCH   1  20
HETATM   20  C14 UNK   900       5.834  41.611  10.555  1.00  0.00     0.300 C 
HETATM   21  O3  UNK   900       5.026  41.125   9.696  1.00  0.00    -0.262 OA
BRANCH  20  22
HETATM   22  O4  UNK   900       7.140  41.496  10.042  1.00  0.00    -0.275 OA
BRANCH  22  23
HETATM   23  C15 UNK   900       7.469  40.728   8.924  1.00  0.00     0.101 C 
HETATM   24  C16 UNK   900       7.309  39.348   8.878  1.00  0.00     0.025 C 
HETATM   25  C17 UNK   900       7.939  38.579   7.904  1.00  0.00     0.004 C 
HETATM   26  C18 UNK   900       9.071  39.132   7.328  1.00  0.00     0.019 C 
HETATM   27  C19 UNK   900       9.845  38.317   6.509  1.00  0.00    -0.019 C 
HETATM   28  C22 UNK   900       9.347  40.479   7.408  1.00  0.00     0.101 C 
HETATM   29  C20 UNK   900      11.026  38.895   6.060  1.00  0.00     0.037 C 
HETATM   30  C28 UNK   900       9.207  37.243   5.689  1.00  0.00     0.026 C 
HETATM   31  C21 UNK   900      11.356  40.171   6.479  1.00  0.00     0.296 C 
HETATM   32  C25 UNK   900      11.950  38.087   5.254  1.00  0.00     0.032 C 
HETATM   33  O5  UNK   900      12.580  40.434   6.584  1.00  0.00    -0.259 OA
HETATM   34  O6  UNK   900      10.412  41.012   6.856  1.00  0.00    -0.274 OA
HETATM   35  C26 UNK   900      11.253  37.230   4.229  1.00  0.00     0.005 C 
HETATM   36  C27 UNK   900       9.760  37.410   4.281  1.00  0.00     0.005 C 
HETATM   37  C23 UNK   900       8.461  41.276   8.122  1.00  0.00     0.024 C 
HETATM   38  C24 UNK   900       8.373  42.728   7.832  1.00  0.00     0.035 C 
ENDBRANCH  22  23
ENDBRANCH  20  22
ENDBRANCH   1  20
TORSDOF 8
ENDMDL
MODEL 3
REMARK VINA RESULT:      -9.0      2.291      4.102
REMARK  8 active torsions:
REMARK  status: ('A' for Active; 'I' for Inactive)
REMARK    1  A    between atoms: C5_5  and  S1_6 
REMARK    2  A    between atoms: S1_6  and  N1_9 
REMARK    3  A    between atoms: N1_9  and  C6_10 
REMARK    4  A    between atoms: C6_10  and  C7_11 
REMARK    5  A    between atoms: C6_10  and  C14_18 
REMARK    6  A    between atoms: C7_11  and  C8_12 
REMARK    7  A    between atoms: C14_18  and  O4_20 
REMARK    8  A    between atoms: O4_20  and  C15_21 
ROOT
HETATM    1  C6  UNK   900       4.050  45.666  10.951  1.00  0.00     0.206 C 
ENDROOT
BRANCH   1   2
HETATM    2  N1  UNK   900       3.035  46.647  10.258  1.00  0.00    -0.176 NA
BRANCH   2   3
HETATM    3  S1  UNK   900       3.272  48.218  10.470  1.00  0.00     0.282 S 
HETATM    4  O1  UNK   900       2.784  49.026  11.585  1.00  0.00    -0.199 OA
HETATM    5  O2  UNK   900       2.885  49.046   9.256  1.00  0.00    -0.199 OA
BRANCH   3   6
HETATM    6  C5  UNK   900       5.038  48.434  10.468  1.00  0.00     0.105 C 
HETATM    7  C4  UNK   900       5.798  47.894   9.435  1.00  0.00     0.013 C 
HETATM    8  C3  UNK   900       7.146  47.613   9.630  1.00  0.00    -0.004 C 
HETATM    9  C2  UNK   900       7.556  47.365  10.934  1.00  0.00    -0.022 C 
HETATM   10  C1  UNK   900       8.512  46.272  11.269  1.00  0.00     0.031 C 
HETATM   11  C30 UNK   900       6.977  48.158  11.919  1.00  0.00    -0.004 C 
HETATM   12  C29 UNK   900       5.718  48.673  11.650  1.00  0.00     0.013 C 
ENDBRANCH   3   6
ENDBRANCH   2   3
ENDBRANCH   1   2
BRANCH   1  13
HETATM   13  C7  UNK   900       3.394  45.864  12.442  1.00  0.00     0.062 C 
BRANCH  13  14
HETATM   14  C8  UNK   900       4.266  45.066  13.372  1.00  0.00    -0.020 C 
HETATM   15  C9  UNK   900       5.653  45.111  13.284  1.00  0.00    -0.004 C 
HETATM   16  C10 UNK   900       6.426  43.985  13.065  1.00  0.00    -0.000 C 
HETATM   17  C11 UNK   900       5.886  42.744  13.252  1.00  0.00    -0.000 C 
HETATM   18  C12 UNK   900       4.595  42.694  13.767  1.00  0.00    -0.000 C 
HETATM   19  C13 UNK   900       3.780  43.823  13.778  1.00  0.00    -0.004 C 
ENDBRANCH  13  14
ENDBRANCH   1  13
BRANCH   1  20
HETATM   20  C14 UNK   900       3.196  44.325  10.603  1.00  0.00     0.300 C 
HETATM   21  O3  UNK   900       2.020  44.606  10.199  1.00  0.00    -0.262 OA
BRANCH  20  22
HETATM   22  O4  UNK   900       3.887  43.704   9.545  1.00  0.00    -0.275 OA
BRANCH  22  23
HETATM   23  C15 UNK   900       5.197  43.231   9.645  1.00  0.00     0.101 C 
HETATM   24  C16 UNK   900       6.303  43.971   9.244  1.00  0.00     0.025 C 
HETATM   25  C17 UNK   900       7.541  43.370   9.045  1.00  0.00     0.004 C 
HETATM   26  C18 UNK   900       7.523  42.011   8.775  1.00  0.00     0.019 C 
HETATM   27  C19 UNK   900       8.712  41.416   8.365  1.00  0.00    -0.019 C 
HETATM   28  C22 UNK   900       6.428  41.225   9.060  1.00  0.00     0.101 C 
HETATM   29  C20 UNK   900       8.598  40.081   7.998  1.00  0.00     0.037 C 
HETATM   30  C28 UNK   900      10.024  41.919   8.872  1.00  0.00     0.026 C 
HETATM   31  C21 UNK   900       7.354  39.476   8.021  1.00  0.00     0.296 C 
HETATM   32  C25 UNK   900       9.782  39.386   7.475  1.00  0.00     0.032 C 
HETATM   33  O5  UNK   900       7.153  38.563   7.183  1.00  0.00    -0.259 OA
HETATM   34  O6  UNK   900       6.407  39.935   8.816  1.00  0.00    -0.274 OA
HETATM   35  C26 UNK   900      11.046  39.714   8.227  1.00  0.00     0.005 C 
HETATM   36  C27 UNK   900      10.787  40.689   9.344  1.00  0.00     0.005 C 
HETATM   37  C23 UNK   900       5.312  41.849   9.603  1.00  0.00     0.024 C 
HETATM   38  C24 UNK   900       4.341  41.062  10.403  1.00  0.00     0.035 C 
ENDBRANCH  22  23
ENDBRANCH  20  22
ENDBRANCH   1  20
TORSDOF 8
ENDMDL
MODEL 4
REMARK VINA RESULT:      -8.9      1.905      3.509
REMARK  8 active torsions:
REMARK  status: ('A' for Active; 'I' for Inactive)
REMARK    1  A    between atoms: C5_5  and  S1_6 
REMARK    2  A    between atoms: S1_6  and  N1_9 
REMARK    3  A    between atoms: N1_9  and  C6_10 
REMARK    4  A    between atoms: C6_10  and  C7_11 
REMARK    5  A    between atoms: C6_10  and  C14_18 
REMARK    6  A    between atoms: C7_11  and  C8_12 
REMARK    7  A    between atoms: C14_18  and  O4_20 
REMARK    8  A    between atoms: O4_20  and  C15_21 
ROOT
HETATM    1  C6  UNK   900       7.472  44.104  10.775  1.00  0.00     0.206 C 
ENDROOT
BRANCH   1   2
HETATM    2  N1  UNK   900       7.232  42.616  11.222  1.00  0.00    -0.176 NA
BRANCH   2   3
HETATM    3  S1  UNK   900       5.746  42.035  11.072  1.00  0.00     0.282 S 
HETATM    4  O1  UNK   900       5.246  40.777  11.622  1.00  0.00    -0.199 OA
HETATM    5  O2  UNK   900       5.269  41.987   9.630  1.00  0.00    -0.199 OA
BRANCH   3   6
HETATM    6  C5  UNK   900       4.677  43.296  11.731  1.00  0.00     0.105 C 
HETATM    7  C4  UNK   900       4.384  43.310  13.091  1.00  0.00     0.013 C 
HETATM    8  C3  UNK   900       3.226  43.928  13.553  1.00  0.00    -0.004 C 
HETATM    9  C2  UNK   900       2.165  44.025  12.660  1.00  0.00    -0.022 C 
HETATM   10  C1  UNK   900       0.758  43.765  13.075  1.00  0.00     0.031 C 
HETATM   11  C30 UNK   900       2.499  44.319  11.343  1.00  0.00    -0.004 C 
HETATM   12  C29 UNK   900       3.762  43.938  10.915  1.00  0.00     0.013 C 
ENDBRANCH   3   6
ENDBRANCH   2   3
ENDBRANCH   1   2
BRANCH   1  13
HETATM   13  C7  UNK   900       7.719  44.641  12.307  1.00  0.00     0.062 C 
BRANCH  13  14
HETATM   14  C8  UNK   900       7.142  46.029  12.342  1.00  0.00    -0.020 C 
HETATM   15  C9  UNK   900       6.593  46.557  13.506  1.00  0.00    -0.004 C 
HETATM   16  C10 UNK   900       5.283  46.996  13.583  1.00  0.00    -0.000 C 
HETATM   17  C11 UNK   900       4.579  47.233  12.436  1.00  0.00    -0.000 C 
HETATM   18  C12 UNK   900       5.275  47.117  11.238  1.00  0.00    -0.000 C 
HETATM   19  C13 UNK   900       6.511  46.478  11.183  1.00  0.00    -0.004 C 
ENDBRANCH  13  14
ENDBRANCH   1  13
BRANCH   1  20
HETATM   20  C14 UNK   900       9.052  43.892  10.448  1.00  0.00     0.300 C 
HETATM   21  O3  UNK   900       9.662  43.329  11.417  1.00  0.00    -0.262 OA
BRANCH  20  22
HETATM   22  O4  UNK   900       9.092  43.022   9.342  1.00  0.00    -0.275 OA
BRANCH  22  23
HETATM   23  C15 UNK   900      10.251  42.377   8.905  1.00  0.00     0.101 C 
HETATM   24  C16 UNK   900      11.408  43.057   8.543  1.00  0.00     0.025 C 
HETATM   25  C17 UNK   900      12.413  42.435   7.811  1.00  0.00     0.004 C 
HETATM   26  C18 UNK   900      12.029  41.339   7.055  1.00  0.00     0.019 C 
HETATM   27  C19 UNK   900      12.950  40.819   6.152  1.00  0.00    -0.019 C 
HETATM   28  C22 UNK   900      10.851  40.666   7.294  1.00  0.00     0.101 C 
HETATM   29  C20 UNK   900      12.462  39.799   5.344  1.00  0.00     0.037 C 
HETATM   30  C28 UNK   900      14.413  40.872   6.448  1.00  0.00     0.026 C 
HETATM   31  C21 UNK   900      11.137  39.420   5.460  1.00  0.00     0.296 C 
HETATM   32  C25 UNK   900      13.334  39.239   4.304  1.00  0.00     0.032 C 
HETATM   33  O5  UNK   900      10.578  38.991   4.421  1.00  0.00    -0.259 OA
HETATM   34  O6  UNK   900      10.484  39.620   6.589  1.00  0.00    -0.274 OA
HETATM   35  C26 UNK   900      14.755  39.037   4.763  1.00  0.00     0.005 C 
HETATM   36  C27 UNK   900      14.940  39.466   6.194  1.00  0.00     0.005 C 
HETATM   37  C23 UNK   900      10.029  41.144   8.308  1.00  0.00     0.024 C 
HETATM   38  C24 UNK   900       9.064  40.233   8.969  1.00  0.00     0.035 C 
ENDBRANCH  22  23
ENDBRANCH  20  22
ENDBRANCH   1  20
TORSDOF 8
ENDMDL
MODEL 5
REMARK VINA RESULT:      -8.9      7.747     10.448
REMARK  8 active torsions:
REMARK  status: ('A' for Active; 'I' for Inactive)
REMARK    1  A    between atoms: C5_5  and  S1_6 
REMARK    2  A    between atoms: S1_6  and  N1_9 
REMARK    3  A    between atoms: N1_9  and  C6_10 
REMARK    4  A    between atoms: C6_10  and  C7_11 
REMARK    5  A    between atoms: C6_10  and  C14_18 
REMARK    6  A    between atoms: C7_11  and  C8_12 
REMARK    7  A    between atoms: C14_18  and  O4_20 
REMARK    8  A    between atoms: O4_20  and  C15_21 
ROOT
HETATM    1  C6  UNK   900      15.122  48.601   8.651  1.00  0.00     0.206 C 
ENDROOT
BRANCH   1   2
HETATM    2  N1  UNK   900      16.092  49.552   7.859  1.00  0.00    -0.176 NA
BRANCH   2   3
HETATM    3  S1  UNK   900      16.447  50.964   8.531  1.00  0.00     0.282 S 
HETATM    4  O1  UNK   900      15.627  51.699   9.491  1.00  0.00    -0.199 OA
HETATM    5  O2  UNK   900      16.814  52.031   7.513  1.00  0.00    -0.199 OA
BRANCH   3   6
HETATM    6  C5  UNK   900      18.015  50.722   9.336  1.00  0.00     0.105 C 
HETATM    7  C4  UNK   900      19.186  51.114   8.696  1.00  0.00     0.013 C 
HETATM    8  C3  UNK   900      20.401  50.527   9.036  1.00  0.00    -0.004 C 
HETATM    9  C2  UNK   900      20.353  49.246   9.575  1.00  0.00    -0.022 C 
HETATM   10  C1  UNK   900      21.320  48.184   9.176  1.00  0.00     0.031 C 
HETATM   11  C30 UNK   900      19.314  48.995  10.463  1.00  0.00    -0.004 C 
HETATM   12  C29 UNK   900      18.161  49.752  10.312  1.00  0.00     0.013 C 
ENDBRANCH   3   6
ENDBRANCH   2   3
ENDBRANCH   1   2
BRANCH   1  13
HETATM   13  C7  UNK   900      14.003  48.561   7.452  1.00  0.00     0.062 C 
BRANCH  13  14
HETATM   14  C8  UNK   900      12.878  47.714   7.982  1.00  0.00    -0.020 C 
HETATM   15  C9  UNK   900      12.212  46.801   7.171  1.00  0.00    -0.004 C 
HETATM   16  C10 UNK   900      10.849  46.856   6.946  1.00  0.00    -0.000 C 
HETATM   17  C11 UNK   900      10.055  47.605   7.768  1.00  0.00    -0.000 C 
HETATM   18  C12 UNK   900      10.671  48.192   8.868  1.00  0.00    -0.000 C 
HETATM   19  C13 UNK   900      12.057  48.293   8.948  1.00  0.00    -0.004 C 
ENDBRANCH  13  14
ENDBRANCH   1  13
BRANCH   1  20
HETATM   20  C14 UNK   900      15.870  47.233   8.186  1.00  0.00     0.300 C 
HETATM   21  O3  UNK   900      17.086  47.445   7.865  1.00  0.00    -0.262 OA
BRANCH  20  22
HETATM   22  O4  UNK   900      15.856  46.394   9.317  1.00  0.00    -0.275 OA
BRANCH  22  23
HETATM   23  C15 UNK   900      14.993  45.308   9.466  1.00  0.00     0.101 C 
HETATM   24  C16 UNK   900      14.748  44.388   8.453  1.00  0.00     0.025 C 
HETATM   25  C17 UNK   900      13.657  43.527   8.506  1.00  0.00     0.004 C 
HETATM   26  C18 UNK   900      12.596  43.935   9.297  1.00  0.00     0.019 C 
HETATM   27  C19 UNK   900      11.411  43.212   9.214  1.00  0.00    -0.019 C 
HETATM   28  C22 UNK   900      12.737  44.907  10.263  1.00  0.00     0.101 C 
HETATM   29  C20 UNK   900      10.352  43.743   9.941  1.00  0.00     0.037 C 
HETATM   30  C28 UNK   900      11.437  41.743   8.940  1.00  0.00     0.026 C 
HETATM   31  C21 UNK   900      10.533  44.928  10.631  1.00  0.00     0.296 C 
HETATM   32  C25 UNK   900       9.036  43.096   9.854  1.00  0.00     0.032 C 
HETATM   33  O5  UNK   900       9.526  45.668  10.757  1.00  0.00    -0.259 OA
HETATM   34  O6  UNK   900      11.738  45.291  11.023  1.00  0.00    -0.274 OA
HETATM   35  C26 UNK   900       9.110  41.591   9.879  1.00  0.00     0.005 C 
HETATM   36  C27 UNK   900      10.531  41.108   9.986  1.00  0.00     0.005 C 
HETATM   37  C23 UNK   900      13.986  45.500  10.402  1.00  0.00     0.024 C 
HETATM   38  C24 UNK   900      14.367  46.127  11.690  1.00  0.00     0.035 C 
ENDBRANCH  22  23
ENDBRANCH  20  22
ENDBRANCH   1  20
TORSDOF 8
ENDMDL
MODEL 6
REMARK VINA RESULT:      -8.8      6.260      8.848
REMARK  8 active torsions:
REMARK  status: ('A' for Active; 'I' for Inactive)
REMARK    1  A    between atoms: C5_5  and  S1_6 
REMARK    2  A    between atoms: S1_6  and  N1_9 
REMARK    3  A    between atoms: N1_9  and  C6_10 
REMARK    4  A    between atoms: C6_10  and  C7_11 
REMARK    5  A    between atoms: C6_10  and  C14_18 
REMARK    6  A    between atoms: C7_11  and  C8_12 
REMARK    7  A    between atoms: C14_18  and  O4_20 
REMARK    8  A    between atoms: O4_20  and  C15_21 
ROOT
HETATM    1  C6  UNK   900      10.748  40.175   6.492  1.00  0.00     0.206 C 
ENDROOT
BRANCH   1   2
HETATM    2  N1  UNK   900      10.789  41.711   6.159  1.00  0.00    -0.176 NA
BRANCH   2   3
HETATM    3  S1  UNK   900      11.245  42.704   7.333  1.00  0.00     0.282 S 
HETATM    4  O1  UNK   900      10.578  42.893   8.619  1.00  0.00    -0.199 OA
HETATM    5  O2  UNK   900      11.465  44.129   6.853  1.00  0.00    -0.199 OA
BRANCH   3   6
HETATM    6  C5  UNK   900      12.913  42.230   7.732  1.00  0.00     0.105 C 
HETATM    7  C4  UNK   900      13.968  42.707   6.961  1.00  0.00     0.013 C 
HETATM    8  C3  UNK   900      15.173  42.013   6.916  1.00  0.00    -0.004 C 
HETATM    9  C2  UNK   900      15.124  40.648   7.174  1.00  0.00    -0.022 C 
HETATM   10  C1  UNK   900      15.906  39.664   6.373  1.00  0.00     0.031 C 
HETATM   11  C30 UNK   900      14.257  40.248   8.184  1.00  0.00    -0.004 C 
HETATM   12  C29 UNK   900      13.163  41.063   8.433  1.00  0.00     0.013 C 
ENDBRANCH   3   6
ENDBRANCH   2   3
ENDBRANCH   1   2
BRANCH   1  13
HETATM   13  C7  UNK   900       9.267  39.957   5.819  1.00  0.00     0.062 C 
BRANCH  13  14
HETATM   14  C8  UNK   900       8.500  39.119   6.805  1.00  0.00    -0.020 C 
HETATM   15  C9  UNK   900       9.004  38.845   8.072  1.00  0.00    -0.004 C 
HETATM   16  C10 UNK   900       9.215  37.557   8.530  1.00  0.00    -0.000 C 
HETATM   17  C11 UNK   900       8.632  36.503   7.885  1.00  0.00    -0.000 C 
HETATM   18  C12 UNK   900       7.757  36.809   6.849  1.00  0.00    -0.000 C 
HETATM   19  C13 UNK   900       7.729  38.081   6.283  1.00  0.00    -0.004 C 
ENDBRANCH  13  14
ENDBRANCH   1  13
BRANCH   1  20
HETATM   20  C14 UNK   900      11.570  39.729   5.160  1.00  0.00     0.300 C 
HETATM   21  O3  UNK   900      12.276  40.686   4.699  1.00  0.00    -0.262 OA
BRANCH  20  22
HETATM   22  O4  UNK   900      12.441  38.706   5.581  1.00  0.00    -0.275 OA
BRANCH  22  23
HETATM   23  C15 UNK   900      12.161  37.345   5.446  1.00  0.00     0.101 C 
HETATM   24  C16 UNK   900      11.095  36.861   4.697  1.00  0.00     0.025 C 
HETATM   25  C17 UNK   900      10.644  35.553   4.843  1.00  0.00     0.004 C 
HETATM   26  C18 UNK   900      10.934  34.939   6.051  1.00  0.00     0.019 C 
HETATM   27  C19 UNK   900      10.326  33.718   6.319  1.00  0.00    -0.019 C 
HETATM   28  C22 UNK   900      11.916  35.413   6.892  1.00  0.00     0.101 C 
HETATM   29  C20 UNK   900      10.566  33.215   7.592  1.00  0.00     0.037 C 
HETATM   30  C28 UNK   900      10.018  32.765   5.210  1.00  0.00     0.026 C 
HETATM   31  C21 UNK   900      11.325  33.955   8.480  1.00  0.00     0.296 C 
HETATM   32  C25 UNK   900       9.904  31.968   7.999  1.00  0.00     0.032 C 
HETATM   33  O5  UNK   900      11.052  33.830   9.699  1.00  0.00    -0.259 OA
HETATM   34  O6  UNK   900      12.204  34.831   8.033  1.00  0.00    -0.274 OA
HETATM   35  C26 UNK   900       9.884  30.923   6.915  1.00  0.00     0.005 C 
HETATM   36  C27 UNK   900      10.555  31.413   5.660  1.00  0.00     0.005 C 
HETATM   37  C23 UNK   900      12.595  36.563   6.507  1.00  0.00     0.024 C 
HETATM   38  C24 UNK   900      13.953  36.832   7.038  1.00  0.00     0.035 C 
ENDBRANCH  22  23
ENDBRANCH  20  22
ENDBRANCH   1  20
TORSDOF 8
ENDMDL
MODEL 7
REMARK VINA RESULT:      -8.8      5.611      8.444
REMARK  8 active torsions:
REMARK  status: ('A' for Active; 'I' for Inactive)
REMARK    1  A    between atoms: C5_5  and  S1_6 
REMARK    2  A    between atoms: S1_6  and  N1_9 
REMARK    3  A    between atoms: N1_9  and  C6_10 
REMARK    4  A    between atoms: C6_10  and  C7_11 
REMARK    5  A    between atoms: C6_10  and  C14_18 
REMARK    6  A    between atoms: C7_11  and  C8_12 
REMARK    7  A    between atoms: C14_18  and  O4_20 
REMARK    8  A    between atoms: O4_20  and  C15_21 
ROOT
HETATM    1  C6  UNK   900      12.242  39.958   6.460  1.00  0.00     0.206 C 
ENDROOT
BRANCH   1   2
HETATM    2  N1  UNK   900      13.339  40.969   5.963  1.00  0.00    -0.176 NA
BRANCH   2   3
HETATM    3  S1  UNK   900      14.565  41.266   6.953  1.00  0.00     0.282 S 
HETATM    4  O1  UNK   900      15.892  41.742   6.571  1.00  0.00    -0.199 OA
HETATM    5  O2  UNK   900      14.876  40.102   7.879  1.00  0.00    -0.199 OA
BRANCH   3   6
HETATM    6  C5  UNK   900      13.952  42.462   8.120  1.00  0.00     0.105 C 
HETATM    7  C4  UNK   900      13.575  42.050   9.394  1.00  0.00     0.013 C 
HETATM    8  C3  UNK   900      12.671  42.804  10.135  1.00  0.00    -0.004 C 
HETATM    9  C2  UNK   900      11.784  43.604   9.423  1.00  0.00    -0.022 C 
HETATM   10  C1  UNK   900      10.346  43.715   9.796  1.00  0.00     0.031 C 
HETATM   11  C30 UNK   900      12.304  44.247   8.305  1.00  0.00    -0.004 C 
HETATM   12  C29 UNK   900      13.385  43.645   7.680  1.00  0.00     0.013 C 
ENDBRANCH   3   6
ENDBRANCH   2   3
ENDBRANCH   1   2
BRANCH   1  13
HETATM   13  C7  UNK   900      11.052  41.089   6.482  1.00  0.00     0.062 C 
BRANCH  13  14
HETATM   14  C8  UNK   900      10.185  40.735   7.659  1.00  0.00    -0.020 C 
HETATM   15  C9  UNK   900      10.530  39.709   8.533  1.00  0.00    -0.004 C 
HETATM   16  C10 UNK   900       9.713  38.618   8.765  1.00  0.00    -0.000 C 
HETATM   17  C11 UNK   900       8.398  38.665   8.399  1.00  0.00    -0.000 C 
HETATM   18  C12 UNK   900       7.929  39.876   7.902  1.00  0.00    -0.000 C 
HETATM   19  C13 UNK   900       8.808  40.873   7.489  1.00  0.00    -0.004 C 
ENDBRANCH  13  14
ENDBRANCH   1  13
BRANCH   1  20
HETATM   20  C14 UNK   900      11.881  39.411   4.971  1.00  0.00     0.300 C 
HETATM   21  O3  UNK   900      12.557  40.011   4.071  1.00  0.00    -0.262 OA
BRANCH  20  22
HETATM   22  O4  UNK   900      12.258  38.054   4.968  1.00  0.00    -0.275 OA
BRANCH  22  23
HETATM   23  C15 UNK   900      11.382  37.006   5.256  1.00  0.00     0.101 C 
HETATM   24  C16 UNK   900      10.023  37.052   4.967  1.00  0.00     0.025 C 
HETATM   25  C17 UNK   900       9.130  36.159   5.550  1.00  0.00     0.004 C 
HETATM   26  C18 UNK   900       9.531  35.587   6.747  1.00  0.00     0.019 C 
HETATM   27  C19 UNK   900       8.590  34.857   7.464  1.00  0.00    -0.019 C 
HETATM   28  C22 UNK   900      10.849  35.582   7.146  1.00  0.00     0.101 C 
HETATM   29  C20 UNK   900       9.022  34.412   8.707  1.00  0.00     0.037 C 
HETATM   30  C28 UNK   900       7.522  34.092   6.752  1.00  0.00     0.026 C 
HETATM   31  C21 UNK   900      10.289  34.752   9.144  1.00  0.00     0.296 C 
HETATM   32  C25 UNK   900       8.074  33.699   9.574  1.00  0.00     0.032 C 
HETATM   33  O5  UNK   900      10.444  34.883  10.384  1.00  0.00    -0.259 OA
HETATM   34  O6  UNK   900      11.239  35.034   8.274  1.00  0.00    -0.274 OA
HETATM   35  C26 UNK   900       7.212  32.713   8.830  1.00  0.00     0.005 C 
HETATM   36  C27 UNK   900       7.533  32.697   7.360  1.00  0.00     0.005 C 
HETATM   37  C23 UNK   900      11.776  36.205   6.319  1.00  0.00     0.024 C 
HETATM   38  C24 UNK   900      13.204  35.809   6.378  1.00  0.00     0.035 C 
ENDBRANCH  22  23
ENDBRANCH  20  22
ENDBRANCH   1  20
TORSDOF 8
ENDMDL
MODEL 8
REMARK VINA RESULT:      -8.7      3.042      9.470
REMARK  8 active torsions:
REMARK  status: ('A' for Active; 'I' for Inactive)
REMARK    1  A    between atoms: C5_5  and  S1_6 
REMARK    2  A    between atoms: S1_6  and  N1_9 
REMARK    3  A    between atoms: N1_9  and  C6_10 
REMARK    4  A    between atoms: C6_10  and  C7_11 
REMARK    5  A    between atoms: C6_10  and  C14_18 
REMARK    6  A    between atoms: C7_11  and  C8_12 
REMARK    7  A    between atoms: C14_18  and  O4_20 
REMARK    8  A    between atoms: O4_20  and  C15_21 
ROOT
HETATM    1  C6  UNK   900       8.944  40.460   7.355  1.00  0.00     0.206 C 
ENDROOT
BRANCH   1   2
HETATM    2  N1  UNK   900      10.342  40.812   7.982  1.00  0.00    -0.176 NA
BRANCH   2   3
HETATM    3  S1  UNK   900      11.249  41.878   7.201  1.00  0.00     0.282 S 
HETATM    4  O1  UNK   900      11.519  43.255   7.611  1.00  0.00    -0.199 OA
HETATM    5  O2  UNK   900      10.862  42.030   5.740  1.00  0.00    -0.199 OA
BRANCH   3   6
HETATM    6  C5  UNK   900      12.848  41.112   7.041  1.00  0.00     0.105 C 
HETATM    7  C4  UNK   900      13.203  40.505   5.841  1.00  0.00     0.013 C 
HETATM    8  C3  UNK   900      14.177  39.511   5.820  1.00  0.00    -0.004 C 
HETATM    9  C2  UNK   900      14.367  38.791   6.994  1.00  0.00    -0.022 C 
HETATM   10  C1  UNK   900      14.567  37.314   6.991  1.00  0.00     0.031 C 
HETATM   11  C30 UNK   900      14.301  39.519   8.176  1.00  0.00    -0.004 C 
HETATM   12  C29 UNK   900      13.531  40.672   8.161  1.00  0.00     0.013 C 
ENDBRANCH   3   6
ENDBRANCH   2   3
ENDBRANCH   1   2
BRANCH   1  13
HETATM   13  C7  UNK   900       9.189  38.840   7.442  1.00  0.00     0.062 C 
BRANCH  13  14
HETATM   14  C8  UNK   900      10.136  38.517   6.319  1.00  0.00    -0.020 C 
HETATM   15  C9  UNK   900       9.768  38.686   4.988  1.00  0.00    -0.004 C 
HETATM   16  C10 UNK   900       9.774  37.650   4.073  1.00  0.00    -0.000 C 
HETATM   17  C11 UNK   900      10.452  36.498   4.357  1.00  0.00    -0.000 C 
HETATM   18  C12 UNK   900      11.198  36.484   5.529  1.00  0.00    -0.000 C 
HETATM   19  C13 UNK   900      11.006  37.446   6.517  1.00  0.00    -0.004 C 
ENDBRANCH  13  14
ENDBRANCH   1  13
BRANCH   1  20
HETATM   20  C14 UNK   900       8.139  40.552   8.767  1.00  0.00     0.300 C 
HETATM   21  O3  UNK   900       8.189  39.452   9.410  1.00  0.00    -0.262 OA
BRANCH  20  22
HETATM   22  O4  UNK   900       8.814  41.531   9.521  1.00  0.00    -0.275 OA
BRANCH  22  23
HETATM   23  C15 UNK   900       8.179  42.396  10.414  1.00  0.00     0.101 C 
HETATM   24  C16 UNK   900       6.797  42.479  10.536  1.00  0.00     0.025 C 
HETATM   25  C17 UNK   900       6.192  43.557  11.174  1.00  0.00     0.004 C 
HETATM   26  C18 UNK   900       6.931  44.728  11.228  1.00  0.00     0.019 C 
HETATM   27  C19 UNK   900       6.288  45.880  11.666  1.00  0.00    -0.019 C 
HETATM   28  C22 UNK   900       8.294  44.739  11.028  1.00  0.00     0.101 C 
HETATM   29  C20 UNK   900       7.050  47.039  11.585  1.00  0.00     0.037 C 
HETATM   30  C28 UNK   900       5.200  45.799  12.687  1.00  0.00     0.026 C 
HETATM   31  C21 UNK   900       8.326  46.974  11.054  1.00  0.00     0.296 C 
HETATM   32  C25 UNK   900       6.434  48.321  11.950  1.00  0.00     0.032 C 
HETATM   33  O5  UNK   900       8.742  47.996  10.453  1.00  0.00    -0.259 OA
HETATM   34  O6  UNK   900       9.003  45.843  11.088  1.00  0.00    -0.274 OA
HETATM   35  C26 UNK   900       5.567  48.237  13.179  1.00  0.00     0.005 C 
HETATM   36  C27 UNK   900       5.541  46.842  13.743  1.00  0.00     0.005 C 
HETATM   37  C23 UNK   900       8.912  43.531  10.732  1.00  0.00     0.024 C 
HETATM   38  C24 UNK   900      10.356  43.349  11.017  1.00  0.00     0.035 C 
ENDBRANCH  22  23
ENDBRANCH  20  22
ENDBRANCH   1  20
TORSDOF 8
ENDMDL
MODEL 9
REMARK VINA RESULT:      -8.6      5.026     10.404
REMARK  8 active torsions:
REMARK  status: ('A' for Active; 'I' for Inactive)
REMARK    1  A    between atoms: C5_5  and  S1_6 
REMARK    2  A    between atoms: S1_6  and  N1_9 
REMARK    3  A    between atoms: N1_9  and  C6_10 
REMARK    4  A    between atoms: C6_10  and  C7_11 
REMARK    5  A    between atoms: C6_10  and  C14_18 
REMARK    6  A    between atoms: C7_11  and  C8_12 
REMARK    7  A    between atoms: C14_18  and  O4_20 
REMARK    8  A    between atoms: O4_20  and  C15_21 
ROOT
HETATM    1  C6  UNK   900       9.553  35.318   8.202  1.00  0.00     0.206 C 
ENDROOT
BRANCH   1   2
HETATM    2  N1  UNK   900       8.351  34.421   8.674  1.00  0.00    -0.176 NA
BRANCH   2   3
HETATM    3  S1  UNK   900       8.695  32.939   9.178  1.00  0.00     0.282 S 
HETATM    4  O1  UNK   900       7.853  32.090  10.017  1.00  0.00    -0.199 OA
HETATM    5  O2  UNK   900      10.053  32.841   9.853  1.00  0.00    -0.199 OA
BRANCH   3   6
HETATM    6  C5  UNK   900       8.993  31.994   7.700  1.00  0.00     0.105 C 
HETATM    7  C4  UNK   900      10.300  31.746   7.292  1.00  0.00     0.013 C 
HETATM    8  C3  UNK   900      10.576  31.464   5.958  1.00  0.00    -0.004 C 
HETATM    9  C2  UNK   900       9.684  31.955   5.012  1.00  0.00    -0.022 C 
HETATM   10  C1  UNK   900      10.144  32.566   3.733  1.00  0.00     0.031 C 
HETATM   11  C30 UNK   900       8.337  31.898   5.355  1.00  0.00    -0.004 C 
HETATM   12  C29 UNK   900       8.032  31.921   6.707  1.00  0.00     0.013 C 
ENDBRANCH   3   6
ENDBRANCH   2   3
ENDBRANCH   1   2
BRANCH   1  13
HETATM   13  C7  UNK   900       8.925  35.564   6.705  1.00  0.00     0.062 C 
BRANCH  13  14
HETATM   14  C8  UNK   900      10.107  35.588   5.775  1.00  0.00    -0.020 C 
HETATM   15  C9  UNK   900      11.386  35.271   6.219  1.00  0.00    -0.004 C 
HETATM   16  C10 UNK   900      12.451  36.149   6.122  1.00  0.00    -0.000 C 
HETATM   17  C11 UNK   900      12.363  37.232   5.294  1.00  0.00    -0.000 C 
HETATM   18  C12 UNK   900      11.225  37.324   4.501  1.00  0.00    -0.000 C 
HETATM   19  C13 UNK   900      10.097  36.555   4.770  1.00  0.00    -0.004 C 
ENDBRANCH  13  14
ENDBRANCH   1  13
BRANCH   1  20
HETATM   20  C14 UNK   900       8.947  36.692   8.831  1.00  0.00     0.300 C 
HETATM   21  O3  UNK   900       9.164  36.772  10.085  1.00  0.00    -0.262 OA
BRANCH  20  22
HETATM   22  O4  UNK   900       9.650  37.735   8.198  1.00  0.00    -0.275 OA
BRANCH  22  23
HETATM   23  C15 UNK   900       9.321  39.085   8.334  1.00  0.00     0.101 C 
HETATM   24  C16 UNK   900       9.959  39.934   9.231  1.00  0.00     0.025 C 
HETATM   25  C17 UNK   900       9.406  41.162   9.582  1.00  0.00     0.004 C 
HETATM   26  C18 UNK   900       8.035  41.282   9.421  1.00  0.00     0.019 C 
HETATM   27  C19 UNK   900       7.417  42.408   9.952  1.00  0.00    -0.019 C 
HETATM   28  C22 UNK   900       7.317  40.422   8.619  1.00  0.00     0.101 C 
HETATM   29  C20 UNK   900       6.030  42.410   9.859  1.00  0.00     0.037 C 
HETATM   30  C28 UNK   900       8.140  43.714  10.008  1.00  0.00     0.026 C 
HETATM   31  C21 UNK   900       5.388  41.316   9.308  1.00  0.00     0.296 C 
HETATM   32  C25 UNK   900       5.280  43.519  10.462  1.00  0.00     0.032 C 
HETATM   33  O5  UNK   900       4.240  41.054   9.746  1.00  0.00    -0.259 OA
HETATM   34  O6  UNK   900       6.019  40.536   8.452  1.00  0.00    -0.274 OA
HETATM   35  C26 UNK   900       5.916  44.865  10.230  1.00  0.00     0.005 C 
HETATM   36  C27 UNK   900       7.183  44.746   9.427  1.00  0.00     0.005 C 
HETATM   37  C23 UNK   900       8.011  39.393   7.994  1.00  0.00     0.024 C 
HETATM   38  C24 UNK   900       7.468  38.779   6.758  1.00  0.00     0.035 C 
ENDBRANCH  22  23
ENDBRANCH  20  22
ENDBRANCH   1  20
TORSDOF 8
ENDMDL
