MODEL 1
REMARK VINA RESULT:      -8.8      0.000      0.000
REMARK  7 active torsions:
REMARK  status: ('A' for Active; 'I' for Inactive)
REMARK    1  A    between atoms: C7_10  and  C8_11 
REMARK    2  A    between atoms: C8_11  and  C9_12 
REMARK       I    between atoms: C9_12  and  N1_14 
REMARK    3  A    between atoms: N1_14  and  C10_15 
REMARK    4  A    between atoms: C10_15  and  C11_16 
REMARK    5  A    between atoms: C11_16  and  C12_17 
REMARK    6  A    between atoms: C12_17  and  C13_18 
REMARK    7  A    between atoms: C19_26  and  C20_27 
ROOT
HETATM    1  C1  UNK   900      -0.157  40.550  11.833  1.00  0.00     0.058 C 
HETATM    2  C2  UNK   900       0.825  41.672  11.871  1.00  0.00     0.078 C 
HETATM    3  O1  UNK   900       2.136  41.558  11.796  1.00  0.00    -0.311 OA
HETATM    4  C3  UNK   900       2.716  42.672  12.200  1.00  0.00     0.102 C 
HETATM    5  C4  UNK   900       3.965  42.978  12.731  1.00  0.00     0.050 C 
HETATM    6  C5  UNK   900       4.202  44.324  12.958  1.00  0.00     0.105 C 
HETATM    7  O2  UNK   900       5.192  44.763  13.697  1.00  0.00    -0.273 OA
HETATM    8  C6  UNK   900       5.765  45.923  13.429  1.00  0.00     0.296 C 
HETATM    9  O3  UNK   900       6.686  46.407  14.152  1.00  0.00    -0.259 OA
HETATM   10  C7  UNK   900       5.264  46.711  12.399  1.00  0.00     0.047 C 
HETATM   11  C14 UNK   900       3.928  46.534  12.065  1.00  0.00    -0.018 C 
HETATM   12  C15 UNK   900       3.327  47.337  10.983  1.00  0.00     0.031 C 
HETATM   13  C16 UNK   900       3.393  45.291  12.382  1.00  0.00     0.019 C 
HETATM   14  C17 UNK   900       2.085  44.972  12.055  1.00  0.00     0.004 C 
HETATM   15  C18 UNK   900       1.730  43.643  12.074  1.00  0.00     0.025 C 
HETATM   16  C19 UNK   900       0.492  43.010  12.053  1.00  0.00     0.021 C 
ENDROOT
BRANCH  10  17
HETATM   17  C8  UNK   900       6.158  47.630  11.666  1.00  0.00     0.121 C 
BRANCH  17  18
HETATM   18  C9  UNK   900       7.052  46.893  10.719  1.00  0.00     0.256 C 
HETATM   19  O4  UNK   900       8.230  46.663  11.130  1.00  0.00    -0.270 OA
HETATM   20  N1  UNK   900       6.559  46.030   9.710  1.00  0.00    -0.238 NA
BRANCH  20  21
HETATM   21  C10 UNK   900       7.075  44.689   9.480  1.00  0.00     0.129 C 
BRANCH  21  22
HETATM   22  C11 UNK   900       6.108  43.710  10.134  1.00  0.00     0.038 C 
BRANCH  22  23
HETATM   23  C12 UNK   900       6.771  42.417  10.514  1.00  0.00     0.100 C 
BRANCH  23  24
HETATM   24  C13 UNK   900       6.137  41.247   9.834  1.00  0.00     0.185 C 
HETATM   25  O5  UNK   900       5.170  40.624  10.333  1.00  0.00    -0.647 OA
HETATM   26  O6  UNK   900       6.472  40.898   8.522  1.00  0.00    -0.647 OA
ENDBRANCH  23  24
ENDBRANCH  22  23
ENDBRANCH  21  22
ENDBRANCH  20  21
ENDBRANCH  17  18
ENDBRANCH  10  17
BRANCH  16  27
HETATM   27  C20 UNK   900      -0.731  43.526  12.684  1.00  0.00     0.002 C 
HETATM   28  C21 UNK   900      -0.901  43.592  14.041  1.00  0.00     0.000 C 
HETATM   29  C22 UNK   900      -2.201  43.632  14.531  1.00  0.00     0.000 C 
HETATM   30  C23 UNK   900      -3.274  43.349  13.695  1.00  0.00     0.000 C 
HETATM   31  C24 UNK   900      -3.095  43.627  12.346  1.00  0.00     0.000 C 
HETATM   32  C25 UNK   900      -1.812  43.848  11.870  1.00  0.00     0.000 C 
ENDBRANCH  16  27
TORSDOF 7
ENDMDL
MODEL 2
REMARK VINA RESULT:      -8.7      8.732     14.564
REMARK  7 active torsions:
REMARK  status: ('A' for Active; 'I' for Inactive)
REMARK    1  A    between atoms: C7_10  and  C8_11 
REMARK    2  A    between atoms: C8_11  and  C9_12 
REMARK       I    between atoms: C9_12  and  N1_14 
REMARK    3  A    between atoms: N1_14  and  C10_15 
REMARK    4  A    between atoms: C10_15  and  C11_16 
REMARK    5  A    between atoms: C11_16  and  C12_17 
REMARK    6  A    between atoms: C12_17  and  C13_18 
REMARK    7  A    between atoms: C19_26  and  C20_27 
ROOT
HETATM    1  C1  UNK   900      18.066  50.705  10.882  1.00  0.00     0.058 C 
HETATM    2  C2  UNK   900      17.151  49.589  10.504  1.00  0.00     0.078 C 
HETATM    3  O1  UNK   900      15.980  49.328  11.051  1.00  0.00    -0.311 OA
HETATM    4  C3  UNK   900      15.593  48.105  10.742  1.00  0.00     0.102 C 
HETATM    5  C4  UNK   900      14.742  47.178  11.334  1.00  0.00     0.050 C 
HETATM    6  C5  UNK   900      14.551  46.004  10.623  1.00  0.00     0.105 C 
HETATM    7  O2  UNK   900      14.018  44.926  11.146  1.00  0.00    -0.273 OA
HETATM    8  C6  UNK   900      13.308  44.101  10.398  1.00  0.00     0.296 C 
HETATM    9  O3  UNK   900      12.823  43.022  10.853  1.00  0.00    -0.259 OA
HETATM   10  C7  UNK   900      13.188  44.343   9.035  1.00  0.00     0.047 C 
HETATM   11  C14 UNK   900      14.202  45.080   8.436  1.00  0.00    -0.018 C 
HETATM   12  C15 UNK   900      14.143  45.375   6.992  1.00  0.00     0.031 C 
HETATM   13  C16 UNK   900      14.909  45.923   9.286  1.00  0.00     0.019 C 
HETATM   14  C17 UNK   900      15.912  46.747   8.802  1.00  0.00     0.004 C 
HETATM   15  C18 UNK   900      16.323  47.787   9.603  1.00  0.00     0.025 C 
HETATM   16  C19 UNK   900      17.435  48.620   9.549  1.00  0.00     0.021 C 
ENDROOT
BRANCH  10  17
HETATM   17  C8  UNK   900      11.988  43.889   8.302  1.00  0.00     0.121 C 
BRANCH  17  18
HETATM   18  C9  UNK   900      10.817  44.787   8.549  1.00  0.00     0.256 C 
HETATM   19  O4  UNK   900       9.838  44.268   9.166  1.00  0.00    -0.270 OA
HETATM   20  N1  UNK   900      10.932  46.197   8.624  1.00  0.00    -0.238 NA
BRANCH  20  21
HETATM   21  C10 UNK   900      10.343  46.993   9.691  1.00  0.00     0.129 C 
BRANCH  21  22
HETATM   22  C11 UNK   900      11.413  47.960  10.183  1.00  0.00     0.038 C 
BRANCH  22  23
HETATM   23  C12 UNK   900      12.187  48.580   9.055  1.00  0.00     0.100 C 
BRANCH  23  24
HETATM   24  C13 UNK   900      12.326  50.058   9.224  1.00  0.00     0.185 C 
HETATM   25  O5  UNK   900      13.442  50.618   9.346  1.00  0.00    -0.647 OA
HETATM   26  O6  UNK   900      11.230  50.915   9.074  1.00  0.00    -0.647 OA
ENDBRANCH  23  24
ENDBRANCH  22  23
ENDBRANCH  21  22
ENDBRANCH  20  21
ENDBRANCH  17  18
ENDBRANCH  10  17
BRANCH  16  27
HETATM   27  C20 UNK   900      18.772  48.215   9.089  1.00  0.00     0.002 C 
HETATM   28  C21 UNK   900      19.609  47.426   9.830  1.00  0.00     0.000 C 
HETATM   29  C22 UNK   900      20.970  47.487   9.555  1.00  0.00     0.000 C 
HETATM   30  C23 UNK   900      21.477  48.500   8.750  1.00  0.00     0.000 C 
HETATM   31  C24 UNK   900      20.613  49.020   7.795  1.00  0.00     0.000 C 
HETATM   32  C25 UNK   900      19.256  48.756   7.903  1.00  0.00     0.000 C 
ENDBRANCH  16  27
TORSDOF 7
ENDMDL
MODEL 3
REMARK VINA RESULT:      -8.1      1.953      2.590
REMARK  7 active torsions:
REMARK  status: ('A' for Active; 'I' for Inactive)
REMARK    1  A    between atoms: C7_10  and  C8_11 
REMARK    2  A    between atoms: C8_11  and  C9_12 
REMARK       I    between atoms: C9_12  and  N1_14 
REMARK    3  A    between atoms: N1_14  and  C10_15 
REMARK    4  A    between atoms: C10_15  and  C11_16 
REMARK    5  A    between atoms: C11_16  and  C12_17 
REMARK    6  A    between atoms: C12_17  and  C13_18 
REMARK    7  A    between atoms: C19_26  and  C20_27 
ROOT
HETATM    1  C1  UNK   900      -1.995  40.313   9.667  1.00  0.00     0.058 C 
HETATM    2  C2  UNK   900      -0.821  41.091  10.158  1.00  0.00     0.078 C 
HETATM    3  O1  UNK   900       0.446  40.818   9.916  1.00  0.00    -0.311 OA
HETATM    4  C3  UNK   900       1.224  41.470  10.758  1.00  0.00     0.102 C 
HETATM    5  C4  UNK   900       2.507  41.263  11.253  1.00  0.00     0.050 C 
HETATM    6  C5  UNK   900       2.992  42.258  12.087  1.00  0.00     0.105 C 
HETATM    7  O2  UNK   900       4.046  42.103  12.852  1.00  0.00    -0.273 OA
HETATM    8  C6  UNK   900       4.826  43.131  13.134  1.00  0.00     0.296 C 
HETATM    9  O3  UNK   900       5.820  43.034  13.912  1.00  0.00    -0.259 OA
HETATM   10  C7  UNK   900       4.483  44.396  12.672  1.00  0.00     0.047 C 
HETATM   11  C14 UNK   900       3.138  44.630  12.419  1.00  0.00    -0.018 C 
HETATM   12  C15 UNK   900       2.699  45.950  11.928  1.00  0.00     0.031 C 
HETATM   13  C16 UNK   900       2.379  43.501  12.135  1.00  0.00     0.019 C 
HETATM   14  C17 UNK   900       1.035  43.605  11.816  1.00  0.00     0.004 C 
HETATM   15  C18 UNK   900       0.437  42.521  11.215  1.00  0.00     0.025 C 
HETATM   16  C19 UNK   900      -0.897  42.194  11.001  1.00  0.00     0.021 C 
ENDROOT
BRANCH  10  17
HETATM   17  C8  UNK   900       5.534  45.399  12.403  1.00  0.00     0.121 C 
BRANCH  17  18
HETATM   18  C9  UNK   900       6.283  45.091  11.145  1.00  0.00     0.256 C 
HETATM   19  O4  UNK   900       7.547  45.153  11.220  1.00  0.00    -0.270 OA
HETATM   20  N1  UNK   900       5.753  44.274  10.115  1.00  0.00    -0.238 NA
BRANCH  20  21
HETATM   21  C10 UNK   900       6.493  43.184   9.497  1.00  0.00     0.129 C 
BRANCH  21  22
HETATM   22  C11 UNK   900       5.549  42.483   8.528  1.00  0.00     0.038 C 
BRANCH  22  23
HETATM   23  C12 UNK   900       4.104  42.731   8.855  1.00  0.00     0.100 C 
BRANCH  23  24
HETATM   24  C13 UNK   900       3.211  42.411   7.701  1.00  0.00     0.185 C 
HETATM   25  O5  UNK   900       3.192  41.279   7.160  1.00  0.00    -0.647 OA
HETATM   26  O6  UNK   900       2.219  43.302   7.278  1.00  0.00    -0.647 OA
ENDBRANCH  23  24
ENDBRANCH  22  23
ENDBRANCH  21  22
ENDBRANCH  20  21
ENDBRANCH  17  18
ENDBRANCH  10  17
BRANCH  16  27
HETATM   27  C20 UNK   900      -2.003  42.519  11.914  1.00  0.00     0.002 C 
HETATM   28  C21 UNK   900      -2.759  43.653  11.797  1.00  0.00     0.000 C 
HETATM   29  C22 UNK   900      -3.431  44.105  12.927  1.00  0.00     0.000 C 
HETATM   30  C23 UNK   900      -3.131  43.578  14.177  1.00  0.00     0.000 C 
HETATM   31  C24 UNK   900      -2.658  42.272  14.199  1.00  0.00     0.000 C 
HETATM   32  C25 UNK   900      -2.213  41.698  13.017  1.00  0.00     0.000 C 
ENDBRANCH  16  27
TORSDOF 7
ENDMDL
MODEL 4
REMARK VINA RESULT:      -8.0      9.120     12.864
REMARK  7 active torsions:
REMARK  status: ('A' for Active; 'I' for Inactive)
REMARK    1  A    between atoms: C7_10  and  C8_11 
REMARK    2  A    between atoms: C8_11  and  C9_12 
REMARK       I    between atoms: C9_12  and  N1_14 
REMARK    3  A    between atoms: N1_14  and  C10_15 
REMARK    4  A    between atoms: C10_15  and  C11_16 
REMARK    5  A    between atoms: C11_16  and  C12_17 
REMARK    6  A    between atoms: C12_17  and  C13_18 
REMARK    7  A    between atoms: C19_26  and  C20_27 
ROOT
HETATM    1  C1  UNK   900      11.172  31.351   7.778  1.00  0.00     0.058 C 
HETATM    2  C2  UNK   900      10.869  32.791   7.530  1.00  0.00     0.078 C 
HETATM    3  O1  UNK   900      10.933  33.762   8.420  1.00  0.00    -0.311 OA
HETATM    4  C3  UNK   900      10.284  34.825   7.985  1.00  0.00     0.102 C 
HETATM    5  C4  UNK   900       9.668  35.906   8.605  1.00  0.00     0.050 C 
HETATM    6  C5  UNK   900       9.152  36.868   7.751  1.00  0.00     0.105 C 
HETATM    7  O2  UNK   900       8.310  37.795   8.140  1.00  0.00    -0.273 OA
HETATM    8  C6  UNK   900       8.308  38.983   7.562  1.00  0.00     0.296 C 
HETATM    9  O3  UNK   900       7.475  39.885   7.871  1.00  0.00    -0.259 OA
HETATM   10  C7  UNK   900       9.158  39.223   6.489  1.00  0.00     0.047 C 
HETATM   11  C14 UNK   900       9.557  38.120   5.745  1.00  0.00    -0.018 C 
HETATM   12  C15 UNK   900      10.458  38.298   4.590  1.00  0.00     0.031 C 
HETATM   13  C16 UNK   900       9.528  36.904   6.417  1.00  0.00     0.019 C 
HETATM   14  C17 UNK   900       9.950  35.737   5.801  1.00  0.00     0.004 C 
HETATM   15  C18 UNK   900      10.226  34.656   6.606  1.00  0.00     0.025 C 
HETATM   16  C19 UNK   900      10.414  33.308   6.322  1.00  0.00     0.021 C 
ENDROOT
BRANCH  10  17
HETATM   17  C8  UNK   900       9.654  40.589   6.225  1.00  0.00     0.121 C 
BRANCH  17  18
HETATM   18  C9  UNK   900      10.824  40.929   7.093  1.00  0.00     0.256 C 
HETATM   19  O4  UNK   900      10.554  41.266   8.286  1.00  0.00    -0.270 OA
HETATM   20  N1  UNK   900      12.126  40.419   6.863  1.00  0.00    -0.238 NA
BRANCH  20  21
HETATM   21  C10 UNK   900      12.949  39.826   7.907  1.00  0.00     0.129 C 
BRANCH  21  22
HETATM   22  C11 UNK   900      14.108  39.111   7.223  1.00  0.00     0.038 C 
BRANCH  22  23
HETATM   23  C12 UNK   900      13.657  38.261   6.070  1.00  0.00     0.100 C 
BRANCH  23  24
HETATM   24  C13 UNK   900      14.318  38.664   4.792  1.00  0.00     0.185 C 
HETATM   25  O5  UNK   900      15.533  38.971   4.733  1.00  0.00    -0.647 OA
HETATM   26  O6  UNK   900      13.661  38.546   3.563  1.00  0.00    -0.647 OA
ENDBRANCH  23  24
ENDBRANCH  22  23
ENDBRANCH  21  22
ENDBRANCH  20  21
ENDBRANCH  17  18
ENDBRANCH  10  17
BRANCH  16  27
HETATM   27  C20 UNK   900       9.719  32.563   5.262  1.00  0.00     0.002 C 
HETATM   28  C21 UNK   900       8.509  31.950   5.450  1.00  0.00     0.000 C 
HETATM   29  C22 UNK   900       8.168  30.912   4.591  1.00  0.00     0.000 C 
HETATM   30  C23 UNK   900       9.126  30.350   3.756  1.00  0.00     0.000 C 
HETATM   31  C24 UNK   900      10.166  31.182   3.363  1.00  0.00     0.000 C 
HETATM   32  C25 UNK   900      10.374  32.369   4.051  1.00  0.00     0.000 C 
ENDBRANCH  16  27
TORSDOF 7
ENDMDL
MODEL 5
REMARK VINA RESULT:      -8.0      3.420      6.340
REMARK  7 active torsions:
REMARK  status: ('A' for Active; 'I' for Inactive)
REMARK    1  A    between atoms: C7_10  and  C8_11 
REMARK    2  A    between atoms: C8_11  and  C9_12 
REMARK       I    between atoms: C9_12  and  N1_14 
REMARK    3  A    between atoms: N1_14  and  C10_15 
REMARK    4  A    between atoms: C10_15  and  C11_16 
REMARK    5  A    between atoms: C11_16  and  C12_17 
REMARK    6  A    between atoms: C12_17  and  C13_18 
REMARK    7  A    between atoms: C19_26  and  C20_27 
ROOT
HETATM    1  C1  UNK   900       1.875  44.574  11.079  1.00  0.00     0.058 C 
HETATM    2  C2  UNK   900       3.269  44.289  10.630  1.00  0.00     0.078 C 
HETATM    3  O1  UNK   900       3.714  43.137  10.168  1.00  0.00    -0.311 OA
HETATM    4  C3  UNK   900       5.033  43.115  10.189  1.00  0.00     0.102 C 
HETATM    5  C4  UNK   900       5.985  42.103  10.247  1.00  0.00     0.050 C 
HETATM    6  C5  UNK   900       7.305  42.521  10.173  1.00  0.00     0.105 C 
HETATM    7  O2  UNK   900       8.320  41.753  10.486  1.00  0.00    -0.273 OA
HETATM    8  C6  UNK   900       9.481  41.894   9.872  1.00  0.00     0.296 C 
HETATM    9  O3  UNK   900      10.500  41.209  10.185  1.00  0.00    -0.259 OA
HETATM   10  C7  UNK   900       9.642  42.911   8.939  1.00  0.00     0.047 C 
HETATM   11  C14 UNK   900       8.819  44.022   9.072  1.00  0.00    -0.018 C 
HETATM   12  C15 UNK   900       8.935  45.142   8.119  1.00  0.00     0.031 C 
HETATM   13  C16 UNK   900       7.617  43.798   9.732  1.00  0.00     0.019 C 
HETATM   14  C17 UNK   900       6.687  44.813   9.886  1.00  0.00     0.004 C 
HETATM   15  C18 UNK   900       5.403  44.454  10.225  1.00  0.00     0.025 C 
HETATM   16  C19 UNK   900       4.322  45.194  10.692  1.00  0.00     0.021 C 
ENDROOT
BRANCH  10  17
HETATM   17  C8  UNK   900      10.602  42.754   7.827  1.00  0.00     0.121 C 
BRANCH  17  18
HETATM   18  C9  UNK   900      10.035  41.920   6.722  1.00  0.00     0.256 C 
HETATM   19  O4  UNK   900      10.470  42.168   5.557  1.00  0.00    -0.270 OA
HETATM   20  N1  UNK   900       9.504  40.623   6.932  1.00  0.00    -0.238 NA
BRANCH  20  21
HETATM   21  C10 UNK   900       9.854  39.472   6.111  1.00  0.00     0.129 C 
BRANCH  21  22
HETATM   22  C11 UNK   900       8.573  38.974   5.454  1.00  0.00     0.038 C 
BRANCH  22  23
HETATM   23  C12 UNK   900       7.662  38.281   6.427  1.00  0.00     0.100 C 
BRANCH  23  24
HETATM   24  C13 UNK   900       8.173  36.925   6.795  1.00  0.00     0.185 C 
HETATM   25  O5  UNK   900       8.068  36.460   7.955  1.00  0.00    -0.647 OA
HETATM   26  O6  UNK   900       8.632  36.031   5.822  1.00  0.00    -0.647 OA
ENDBRANCH  23  24
ENDBRANCH  22  23
ENDBRANCH  21  22
ENDBRANCH  20  21
ENDBRANCH  17  18
ENDBRANCH  10  17
BRANCH  16  27
HETATM   27  C20 UNK   900       4.419  46.359  11.584  1.00  0.00     0.002 C 
HETATM   28  C21 UNK   900       4.425  47.650  11.128  1.00  0.00     0.000 C 
HETATM   29  C22 UNK   900       4.981  48.624  11.949  1.00  0.00     0.000 C 
HETATM   30  C23 UNK   900       5.732  48.260  13.060  1.00  0.00     0.000 C 
HETATM   31  C24 UNK   900       5.415  47.042  13.646  1.00  0.00     0.000 C 
HETATM   32  C25 UNK   900       4.635  46.138  12.940  1.00  0.00     0.000 C 
ENDBRANCH  16  27
TORSDOF 7
ENDMDL
MODEL 6
REMARK VINA RESULT:      -7.9      9.132     11.931
REMARK  7 active torsions:
REMARK  status: ('A' for Active; 'I' for Inactive)
REMARK    1  A    between atoms: C7_10  and  C8_11 
REMARK    2  A    between atoms: C8_11  and  C9_12 
REMARK       I    between atoms: C9_12  and  N1_14 
REMARK    3  A    between atoms: N1_14  and  C10_15 
REMARK    4  A    between atoms: C10_15  and  C11_16 
REMARK    5  A    between atoms: C11_16  and  C12_17 
REMARK    6  A    between atoms: C12_17  and  C13_18 
REMARK    7  A    between atoms: C19_26  and  C20_27 
ROOT
HETATM    1  C1  UNK   900       9.803  40.271   7.270  1.00  0.00     0.058 C 
HETATM    2  C2  UNK   900      10.840  41.337   7.389  1.00  0.00     0.078 C 
HETATM    3  O1  UNK   900      10.621  42.600   7.699  1.00  0.00    -0.311 OA
HETATM    4  C3  UNK   900      11.670  43.336   7.385  1.00  0.00     0.102 C 
HETATM    5  C4  UNK   900      11.856  44.680   7.080  1.00  0.00     0.050 C 
HETATM    6  C5  UNK   900      13.170  45.069   6.877  1.00  0.00     0.105 C 
HETATM    7  O2  UNK   900      13.503  46.208   6.318  1.00  0.00    -0.273 OA
HETATM    8  C6  UNK   900      14.620  46.822   6.665  1.00  0.00     0.296 C 
HETATM    9  O3  UNK   900      15.004  47.894   6.110  1.00  0.00    -0.259 OA
HETATM   10  C7  UNK   900      15.478  46.218   7.576  1.00  0.00     0.047 C 
HETATM   11  C14 UNK   900      15.423  44.834   7.670  1.00  0.00    -0.018 C 
HETATM   12  C15 UNK   900      16.305  44.123   8.614  1.00  0.00     0.031 C 
HETATM   13  C16 UNK   900      14.218  44.258   7.284  1.00  0.00     0.019 C 
HETATM   14  C17 UNK   900      14.017  42.890   7.378  1.00  0.00     0.004 C 
HETATM   15  C18 UNK   900      12.722  42.431   7.318  1.00  0.00     0.025 C 
HETATM   16  C19 UNK   900      12.194  41.159   7.129  1.00  0.00     0.021 C 
ENDROOT
BRANCH  10  17
HETATM   17  C8  UNK   900      16.344  47.045   8.442  1.00  0.00     0.121 C 
BRANCH  17  18
HETATM   18  C9  UNK   900      15.565  47.703   9.536  1.00  0.00     0.256 C 
HETATM   19  O4  UNK   900      15.198  48.897   9.318  1.00  0.00    -0.270 OA
HETATM   20  N1  UNK   900      14.803  46.974  10.482  1.00  0.00    -0.238 NA
BRANCH  20  21
HETATM   21  C10 UNK   900      13.427  47.303  10.828  1.00  0.00     0.129 C 
BRANCH  21  22
HETATM   22  C11 UNK   900      12.537  46.211  10.250  1.00  0.00     0.038 C 
BRANCH  22  23
HETATM   23  C12 UNK   900      12.955  44.837  10.691  1.00  0.00     0.100 C 
BRANCH  23  24
HETATM   24  C13 UNK   900      11.786  43.915  10.817  1.00  0.00     0.185 C 
HETATM   25  O5  UNK   900      10.602  44.317  10.725  1.00  0.00    -0.647 OA
HETATM   26  O6  UNK   900      11.955  42.528  10.864  1.00  0.00    -0.647 OA
ENDBRANCH  23  24
ENDBRANCH  22  23
ENDBRANCH  21  22
ENDBRANCH  20  21
ENDBRANCH  17  18
ENDBRANCH  10  17
BRANCH  16  27
HETATM   27  C20 UNK   900      12.788  40.114   6.281  1.00  0.00     0.002 C 
HETATM   28  C21 UNK   900      12.953  40.254   4.929  1.00  0.00     0.000 C 
HETATM   29  C22 UNK   900      13.065  39.097   4.167  1.00  0.00     0.000 C 
HETATM   30  C23 UNK   900      12.756  37.861   4.720  1.00  0.00     0.000 C 
HETATM   31  C24 UNK   900      12.934  37.737   6.092  1.00  0.00     0.000 C 
HETATM   32  C25 UNK   900      13.084  38.883   6.857  1.00  0.00     0.000 C 
ENDBRANCH  16  27
TORSDOF 7
ENDMDL
MODEL 7
REMARK VINA RESULT:      -7.9      9.037     12.691
REMARK  7 active torsions:
REMARK  status: ('A' for Active; 'I' for Inactive)
REMARK    1  A    between atoms: C7_10  and  C8_11 
REMARK    2  A    between atoms: C8_11  and  C9_12 
REMARK       I    between atoms: C9_12  and  N1_14 
REMARK    3  A    between atoms: N1_14  and  C10_15 
REMARK    4  A    between atoms: C10_15  and  C11_16 
REMARK    5  A    between atoms: C11_16  and  C12_17 
REMARK    6  A    between atoms: C12_17  and  C13_18 
REMARK    7  A    between atoms: C19_26  and  C20_27 
ROOT
HETATM    1  C1  UNK   900       9.903  38.135   4.506  1.00  0.00     0.058 C 
HETATM    2  C2  UNK   900      10.887  39.174   4.929  1.00  0.00     0.078 C 
HETATM    3  O1  UNK   900      12.036  39.438   4.339  1.00  0.00    -0.311 OA
HETATM    4  C3  UNK   900      12.809  40.147   5.139  1.00  0.00     0.102 C 
HETATM    5  C4  UNK   900      14.183  40.330   5.249  1.00  0.00     0.050 C 
HETATM    6  C5  UNK   900      14.589  41.244   6.208  1.00  0.00     0.105 C 
HETATM    7  O2  UNK   900      15.825  41.335   6.636  1.00  0.00    -0.273 OA
HETATM    8  C6  UNK   900      16.313  42.499   7.027  1.00  0.00     0.296 C 
HETATM    9  O3  UNK   900      17.483  42.618   7.498  1.00  0.00    -0.259 OA
HETATM   10  C7  UNK   900      15.486  43.615   7.050  1.00  0.00     0.047 C 
HETATM   11  C14 UNK   900      14.123  43.385   7.187  1.00  0.00    -0.018 C 
HETATM   12  C15 UNK   900      13.184  44.522   7.220  1.00  0.00     0.031 C 
HETATM   13  C16 UNK   900      13.683  42.138   6.759  1.00  0.00     0.019 C 
HETATM   14  C17 UNK   900      12.339  41.804   6.795  1.00  0.00     0.004 C 
HETATM   15  C18 UNK   900      11.931  40.722   6.051  1.00  0.00     0.025 C 
HETATM   16  C19 UNK   900      10.756  39.978   6.055  1.00  0.00     0.021 C 
ENDROOT
BRANCH  10  17
HETATM   17  C8  UNK   900      16.055  44.966   6.861  1.00  0.00     0.121 C 
BRANCH  17  18
HETATM   18  C9  UNK   900      16.043  45.752   8.134  1.00  0.00     0.256 C 
HETATM   19  O4  UNK   900      16.388  45.124   9.181  1.00  0.00    -0.270 OA
HETATM   20  N1  UNK   900      16.191  47.161   8.169  1.00  0.00    -0.238 NA
BRANCH  20  21
HETATM   21  C10 UNK   900      17.112  47.848   9.064  1.00  0.00     0.129 C 
BRANCH  21  22
HETATM   22  C11 UNK   900      18.476  47.869   8.386  1.00  0.00     0.038 C 
BRANCH  22  23
HETATM   23  C12 UNK   900      19.402  48.882   8.996  1.00  0.00     0.100 C 
BRANCH  23  24
HETATM   24  C13 UNK   900      20.347  48.255   9.969  1.00  0.00     0.185 C 
HETATM   25  O5  UNK   900      21.399  47.677   9.606  1.00  0.00    -0.647 OA
HETATM   26  O6  UNK   900      20.200  48.437  11.348  1.00  0.00    -0.647 OA
ENDBRANCH  23  24
ENDBRANCH  22  23
ENDBRANCH  21  22
ENDBRANCH  20  21
ENDBRANCH  17  18
ENDBRANCH  10  17
BRANCH  16  27
HETATM   27  C20 UNK   900       9.947  39.684   7.247  1.00  0.00     0.002 C 
HETATM   28  C21 UNK   900      10.158  38.590   8.041  1.00  0.00     0.000 C 
HETATM   29  C22 UNK   900       9.100  38.143   8.825  1.00  0.00     0.000 C 
HETATM   30  C23 UNK   900       7.815  38.625   8.607  1.00  0.00     0.000 C 
HETATM   31  C24 UNK   900       7.718  39.905   8.079  1.00  0.00     0.000 C 
HETATM   32  C25 UNK   900       8.842  40.486   7.511  1.00  0.00     0.000 C 
ENDBRANCH  16  27
TORSDOF 7
ENDMDL
MODEL 8
REMARK VINA RESULT:      -7.9      4.156      6.714
REMARK  7 active torsions:
REMARK  status: ('A' for Active; 'I' for Inactive)
REMARK    1  A    between atoms: C7_10  and  C8_11 
REMARK    2  A    between atoms: C8_11  and  C9_12 
REMARK       I    between atoms: C9_12  and  N1_14 
REMARK    3  A    between atoms: N1_14  and  C10_15 
REMARK    4  A    between atoms: C10_15  and  C11_16 
REMARK    5  A    between atoms: C11_16  and  C12_17 
REMARK    6  A    between atoms: C12_17  and  C13_18 
REMARK    7  A    between atoms: C19_26  and  C20_27 
ROOT
HETATM    1  C1  UNK   900       1.738  43.021   8.753  1.00  0.00     0.058 C 
HETATM    2  C2  UNK   900       3.172  42.608   8.785  1.00  0.00     0.078 C 
HETATM    3  O1  UNK   900       3.754  41.765   7.955  1.00  0.00    -0.311 OA
HETATM    4  C3  UNK   900       4.906  41.356   8.452  1.00  0.00     0.102 C 
HETATM    5  C4  UNK   900       5.692  40.223   8.272  1.00  0.00     0.050 C 
HETATM    6  C5  UNK   900       6.900  40.223   8.951  1.00  0.00     0.105 C 
HETATM    7  O2  UNK   900       7.628  39.145   9.120  1.00  0.00    -0.273 OA
HETATM    8  C6  UNK   900       8.945  39.230   9.187  1.00  0.00     0.296 C 
HETATM    9  O3  UNK   900       9.678  38.220   9.405  1.00  0.00    -0.259 OA
HETATM   10  C7  UNK   900       9.552  40.479   9.149  1.00  0.00     0.047 C 
HETATM   11  C14 UNK   900       8.792  41.561   9.573  1.00  0.00    -0.018 C 
HETATM   12  C15 UNK   900       9.372  42.918   9.562  1.00  0.00     0.031 C 
HETATM   13  C16 UNK   900       7.415  41.397   9.477  1.00  0.00     0.019 C 
HETATM   14  C17 UNK   900       6.548  42.422   9.822  1.00  0.00     0.004 C 
HETATM   15  C18 UNK   900       5.248  42.330   9.383  1.00  0.00     0.025 C 
HETATM   16  C19 UNK   900       4.093  43.016   9.742  1.00  0.00     0.021 C 
ENDROOT
BRANCH  10  17
HETATM   17  C8  UNK   900      10.919  40.624   8.607  1.00  0.00     0.121 C 
BRANCH  17  18
HETATM   18  C9  UNK   900      10.903  40.910   7.139  1.00  0.00     0.256 C 
HETATM   19  O4  UNK   900      12.021  40.835   6.544  1.00  0.00    -0.270 OA
HETATM   20  N1  UNK   900       9.750  40.736   6.334  1.00  0.00    -0.238 NA
BRANCH  20  21
HETATM   21  C10 UNK   900       9.762  40.030   5.060  1.00  0.00     0.129 C 
BRANCH  21  22
HETATM   22  C11 UNK   900       9.766  38.538   5.366  1.00  0.00     0.038 C 
BRANCH  22  23
HETATM   23  C12 UNK   900       8.418  38.037   5.799  1.00  0.00     0.100 C 
BRANCH  23  24
HETATM   24  C13 UNK   900       8.488  36.641   6.327  1.00  0.00     0.185 C 
HETATM   25  O5  UNK   900       7.882  36.285   7.366  1.00  0.00    -0.647 OA
HETATM   26  O6  UNK   900       9.087  35.613   5.591  1.00  0.00    -0.647 OA
ENDBRANCH  23  24
ENDBRANCH  22  23
ENDBRANCH  21  22
ENDBRANCH  20  21
ENDBRANCH  17  18
ENDBRANCH  10  17
BRANCH  16  27
HETATM   27  C20 UNK   900       3.787  43.502  11.096  1.00  0.00     0.002 C 
HETATM   28  C21 UNK   900       3.638  44.829  11.397  1.00  0.00     0.000 C 
HETATM   29  C22 UNK   900       3.823  45.218  12.718  1.00  0.00     0.000 C 
HETATM   30  C23 UNK   900       4.393  44.343  13.634  1.00  0.00     0.000 C 
HETATM   31  C24 UNK   900       4.204  42.988  13.392  1.00  0.00     0.000 C 
HETATM   32  C25 UNK   900       3.766  42.583  12.140  1.00  0.00     0.000 C 
ENDBRANCH  16  27
TORSDOF 7
ENDMDL
MODEL 9
REMARK VINA RESULT:      -7.8      1.982      2.637
REMARK  7 active torsions:
REMARK  status: ('A' for Active; 'I' for Inactive)
REMARK    1  A    between atoms: C7_10  and  C8_11 
REMARK    2  A    between atoms: C8_11  and  C9_12 
REMARK       I    between atoms: C9_12  and  N1_14 
REMARK    3  A    between atoms: N1_14  and  C10_15 
REMARK    4  A    between atoms: C10_15  and  C11_16 
REMARK    5  A    between atoms: C11_16  and  C12_17 
REMARK    6  A    between atoms: C12_17  and  C13_18 
REMARK    7  A    between atoms: C19_26  and  C20_27 
ROOT
HETATM    1  C1  UNK   900      -1.478  40.581   9.583  1.00  0.00     0.058 C 
HETATM    2  C2  UNK   900      -0.286  41.298  10.125  1.00  0.00     0.078 C 
HETATM    3  O1  UNK   900       0.970  41.069   9.799  1.00  0.00    -0.311 OA
HETATM    4  C3  UNK   900       1.780  41.613  10.687  1.00  0.00     0.102 C 
HETATM    5  C4  UNK   900       3.082  41.354  11.100  1.00  0.00     0.050 C 
HETATM    6  C5  UNK   900       3.598  42.236  12.035  1.00  0.00     0.105 C 
HETATM    7  O2  UNK   900       4.682  41.992  12.731  1.00  0.00    -0.273 OA
HETATM    8  C6  UNK   900       5.470  42.982  13.113  1.00  0.00     0.296 C 
HETATM    9  O3  UNK   900       6.495  42.792  13.832  1.00  0.00    -0.259 OA
HETATM   10  C7  UNK   900       5.105  44.293  12.833  1.00  0.00     0.047 C 
HETATM   11  C14 UNK   900       3.750  44.547  12.666  1.00  0.00    -0.018 C 
HETATM   12  C15 UNK   900       3.288  45.916  12.369  1.00  0.00     0.031 C 
HETATM   13  C16 UNK   900       2.984  43.457  12.269  1.00  0.00     0.019 C 
HETATM   14  C17 UNK   900       1.627  43.591  12.019  1.00  0.00     0.004 C 
HETATM   15  C18 UNK   900       1.009  42.590  11.307  1.00  0.00     0.025 C 
HETATM   16  C19 UNK   900      -0.332  42.282  11.106  1.00  0.00     0.021 C 
ENDROOT
BRANCH  10  17
HETATM   17  C8  UNK   900       6.142  45.331  12.656  1.00  0.00     0.121 C 
BRANCH  17  18
HETATM   18  C9  UNK   900       7.005  45.050  11.467  1.00  0.00     0.256 C 
HETATM   19  O4  UNK   900       8.233  44.840  11.707  1.00  0.00    -0.270 OA
HETATM   20  N1  UNK   900       6.499  44.509  10.259  1.00  0.00    -0.238 NA
BRANCH  20  21
HETATM   21  C10 UNK   900       7.112  43.384   9.567  1.00  0.00     0.129 C 
BRANCH  21  22
HETATM   22  C11 UNK   900       7.767  43.928   8.304  1.00  0.00     0.038 C 
BRANCH  22  23
HETATM   23  C12 UNK   900       8.692  42.933   7.663  1.00  0.00     0.100 C 
BRANCH  23  24
HETATM   24  C13 UNK   900       9.863  42.621   8.538  1.00  0.00     0.185 C 
HETATM   25  O5  UNK   900      10.784  43.446   8.744  1.00  0.00    -0.647 OA
HETATM   26  O6  UNK   900       9.902  41.459   9.316  1.00  0.00    -0.647 OA
ENDBRANCH  23  24
ENDBRANCH  22  23
ENDBRANCH  21  22
ENDBRANCH  20  21
ENDBRANCH  17  18
ENDBRANCH  10  17
BRANCH  16  27
HETATM   27  C20 UNK   900      -1.401  42.477  12.096  1.00  0.00     0.002 C 
HETATM   28  C21 UNK   900      -2.255  43.546  12.073  1.00  0.00     0.000 C 
HETATM   29  C22 UNK   900      -2.888  43.896  13.259  1.00  0.00     0.000 C 
HETATM   30  C23 UNK   900      -2.467  43.351  14.466  1.00  0.00     0.000 C 
HETATM   31  C24 UNK   900      -1.887  42.091  14.404  1.00  0.00     0.000 C 
HETATM   32  C25 UNK   900      -1.472  41.602  13.175  1.00  0.00     0.000 C 
ENDBRANCH  16  27
TORSDOF 7
ENDMDL
