MODEL 1
REMARK VINA RESULT:      -7.4      0.000      0.000
REMARK  6 active torsions:
REMARK  status: ('A' for Active; 'I' for Inactive)
REMARK    1  A    between atoms: O2_2  and  C2_8 
REMARK    2  A    between atoms: O4_4  and  C15_21 
REMARK    3  A    between atoms: O6_6  and  C22_28 
REMARK    4  A    between atoms: C8_14  and  C10_16 
REMARK    5  A    between atoms: C10_16  and  C11_17 
REMARK    6  A    between atoms: C14_20  and  C16_22 
ROOT
HETATM    1  O3  UNK   900      33.307 -37.064 -55.749  1.00  0.00    -0.305 OA
HETATM    2  O5  UNK   900      32.810 -39.061 -54.720  1.00  0.00    -0.257 OA
HETATM    3  C11 UNK   900      34.278 -36.628 -56.720  1.00  0.00     0.173 A 
HETATM    4  C14 UNK   900      35.069 -37.857 -57.015  1.00  0.00     0.021 A 
HETATM    5  C15 UNK   900      34.602 -38.877 -56.290  1.00  0.00     0.151 A 
HETATM    6  C17 UNK   900      33.477 -38.392 -55.489  1.00  0.00     0.318 A 
ENDROOT
BRANCH   3   7
HETATM    7  C10 UNK   900      33.532 -36.062 -57.927  1.00  0.00     0.076 C 
BRANCH   7   8
HETATM    8  C8  UNK   900      34.268 -34.937 -58.573  1.00  0.00    -0.055 A 
HETATM    9  C9  UNK   900      34.151 -33.643 -58.064  1.00  0.00     0.017 A 
HETATM   10  C4  UNK   900      34.834 -32.577 -58.666  1.00  0.00    -0.022 A 
HETATM   11  C3  UNK   900      34.694 -31.192 -58.102  1.00  0.00     0.076 C 
HETATM   12  C5  UNK   900      35.655 -32.831 -59.771  1.00  0.00     0.076 A 
HETATM   13  C2  UNK   900      35.185 -30.147 -59.099  1.00  0.00     0.156 C 
HETATM   14  C1  UNK   900      36.499 -30.584 -59.782  1.00  0.00     0.086 C 
HETATM   15  O1  UNK   900      36.374 -31.867 -60.425  1.00  0.00    -0.338 OA
HETATM   16  C6  UNK   900      36.885 -29.601 -60.899  1.00  0.00     0.049 C 
HETATM   17  C7  UNK   900      37.667 -30.650 -58.782  1.00  0.00     0.049 C 
HETATM   18  C12 UNK   900      35.761 -34.126 -60.285  1.00  0.00     0.038 A 
HETATM   19  C13 UNK   900      35.069 -35.177 -59.686  1.00  0.00     0.010 A 
BRANCH  13  20
HETATM   20  O2  UNK   900      34.147 -29.958 -60.066  1.00  0.00    -0.392 OA
HETATM   21  H16 UNK   900      34.567 -29.893 -60.940  1.00  0.00     0.210 HD
ENDBRANCH  13  20
ENDBRANCH   7   8
ENDBRANCH   3   7
BRANCH   4  22
HETATM   22  C16 UNK   900      36.191 -37.891 -57.924  1.00  0.00    -0.024 A 
HETATM   23  C18 UNK   900      36.093 -38.591 -59.126  1.00  0.00     0.015 A 
HETATM   24  C20 UNK   900      37.178 -38.626 -60.003  1.00  0.00     0.037 A 
HETATM   25  C22 UNK   900      38.360 -37.960 -59.678  1.00  0.00     0.065 A 
HETATM   26  C21 UNK   900      38.457 -37.259 -58.475  1.00  0.00     0.037 A 
HETATM   27  C19 UNK   900      37.373 -37.225 -57.598  1.00  0.00     0.015 A 
BRANCH  25  28
HETATM   28  O6  UNK   900      39.418 -37.995 -60.533  1.00  0.00    -0.361 OA
HETATM   29  H22 UNK   900      39.422 -38.851 -60.995  1.00  0.00     0.217 HD
ENDBRANCH  25  28
ENDBRANCH   4  22
BRANCH   5  30
HETATM   30  O4  UNK   900      35.056 -40.159 -56.257  1.00  0.00    -0.355 OA
HETATM   31  H19 UNK   900      35.815 -40.212 -56.862  1.00  0.00     0.218 HD
ENDBRANCH   5  30
TORSDOF 6
ENDMDL
MODEL 2
REMARK VINA RESULT:      -6.8      2.070      4.055
REMARK  6 active torsions:
REMARK  status: ('A' for Active; 'I' for Inactive)
REMARK    1  A    between atoms: O2_2  and  C2_8 
REMARK    2  A    between atoms: O4_4  and  C15_21 
REMARK    3  A    between atoms: O6_6  and  C22_28 
REMARK    4  A    between atoms: C8_14  and  C10_16 
REMARK    5  A    between atoms: C10_16  and  C11_17 
REMARK    6  A    between atoms: C14_20  and  C16_22 
ROOT
HETATM    1  O3  UNK   900      38.263 -37.799 -56.568  1.00  0.00    -0.305 OA
HETATM    2  O5  UNK   900      38.779 -39.731 -55.430  1.00  0.00    -0.257 OA
HETATM    3  C11 UNK   900      37.045 -37.128 -56.945  1.00  0.00     0.173 A 
HETATM    4  C14 UNK   900      35.968 -38.016 -56.419  1.00  0.00     0.021 A 
HETATM    5  C15 UNK   900      36.513 -39.074 -55.814  1.00  0.00     0.151 A 
HETATM    6  C17 UNK   900      37.970 -38.945 -55.890  1.00  0.00     0.318 A 
ENDROOT
BRANCH   3   7
HETATM    7  C10 UNK   900      37.054 -35.730 -56.332  1.00  0.00     0.076 C 
BRANCH   7   8
HETATM    8  C8  UNK   900      36.837 -34.662 -57.350  1.00  0.00    -0.055 A 
HETATM    9  C9  UNK   900      37.913 -33.893 -57.796  1.00  0.00     0.017 A 
HETATM   10  C4  UNK   900      37.720 -32.883 -58.749  1.00  0.00    -0.022 A 
HETATM   11  C3  UNK   900      38.892 -32.067 -59.214  1.00  0.00     0.076 C 
HETATM   12  C5  UNK   900      36.437 -32.671 -59.267  1.00  0.00     0.076 A 
HETATM   13  C2  UNK   900      38.424 -30.806 -59.933  1.00  0.00     0.156 C 
HETATM   14  C1  UNK   900      37.247 -31.097 -60.888  1.00  0.00     0.086 C 
HETATM   15  O1  UNK   900      36.140 -31.722 -60.207  1.00  0.00    -0.338 OA
HETATM   16  C6  UNK   900      36.682 -29.792 -61.472  1.00  0.00     0.049 C 
HETATM   17  C7  UNK   900      37.672 -31.999 -62.061  1.00  0.00     0.049 C 
HETATM   18  C12 UNK   900      35.360 -33.435 -58.810  1.00  0.00     0.038 A 
HETATM   19  C13 UNK   900      35.560 -34.430 -57.854  1.00  0.00     0.010 A 
BRANCH  13  20
HETATM   20  O2  UNK   900      38.045 -29.857 -58.931  1.00  0.00    -0.392 OA
HETATM   21  H16 UNK   900      37.398 -29.251 -59.329  1.00  0.00     0.210 HD
ENDBRANCH  13  20
ENDBRANCH   7   8
ENDBRANCH   3   7
BRANCH   4  22
HETATM   22  C16 UNK   900      34.558 -37.758 -56.594  1.00  0.00    -0.024 A 
HETATM   23  C18 UNK   900      34.091 -37.221 -57.792  1.00  0.00     0.015 A 
HETATM   24  C20 UNK   900      32.728 -36.969 -57.960  1.00  0.00     0.037 A 
HETATM   25  C22 UNK   900      31.834 -37.255 -56.929  1.00  0.00     0.065 A 
HETATM   26  C21 UNK   900      32.302 -37.793 -55.729  1.00  0.00     0.037 A 
HETATM   27  C19 UNK   900      33.664 -38.044 -55.561  1.00  0.00     0.015 A 
BRANCH  25  28
HETATM   28  O6  UNK   900      30.506 -37.009 -57.092  1.00  0.00    -0.361 OA
HETATM   29  H22 UNK   900      30.270 -36.209 -56.589  1.00  0.00     0.217 HD
ENDBRANCH  25  28
ENDBRANCH   4  22
BRANCH   5  30
HETATM   30  O4  UNK   900      35.878 -40.120 -55.219  1.00  0.00    -0.355 OA
HETATM   31  H19 UNK   900      34.977 -39.824 -55.003  1.00  0.00     0.218 HD
ENDBRANCH   5  30
TORSDOF 6
ENDMDL
MODEL 3
REMARK VINA RESULT:      -6.6     13.870     16.068
REMARK  6 active torsions:
REMARK  status: ('A' for Active; 'I' for Inactive)
REMARK    1  A    between atoms: O2_2  and  C2_8 
REMARK    2  A    between atoms: O4_4  and  C15_21 
REMARK    3  A    between atoms: O6_6  and  C22_28 
REMARK    4  A    between atoms: C8_14  and  C10_16 
REMARK    5  A    between atoms: C10_16  and  C11_17 
REMARK    6  A    between atoms: C14_20  and  C16_22 
ROOT
HETATM    1  O3  UNK   900      20.132 -29.160 -48.150  1.00  0.00    -0.305 OA
HETATM    2  O5  UNK   900      18.455 -30.176 -46.948  1.00  0.00    -0.257 OA
HETATM    3  C11 UNK   900      21.382 -29.587 -48.725  1.00  0.00     0.173 A 
HETATM    4  C14 UNK   900      21.470 -31.031 -48.362  1.00  0.00     0.021 A 
HETATM    5  C15 UNK   900      20.392 -31.383 -47.656  1.00  0.00     0.151 A 
HETATM    6  C17 UNK   900      19.528 -30.209 -47.524  1.00  0.00     0.318 A 
ENDROOT
BRANCH   3   7
HETATM    7  C10 UNK   900      21.338 -29.325 -50.229  1.00  0.00     0.076 C 
BRANCH   7   8
HETATM    8  C8  UNK   900      22.459 -28.455 -50.687  1.00  0.00    -0.055 A 
HETATM    9  C9  UNK   900      23.700 -29.016 -50.990  1.00  0.00     0.017 A 
HETATM   10  C4  UNK   900      24.762 -28.207 -51.416  1.00  0.00    -0.022 A 
HETATM   11  C3  UNK   900      26.090 -28.833 -51.736  1.00  0.00     0.076 C 
HETATM   12  C5  UNK   900      24.556 -26.830 -51.559  1.00  0.00     0.076 A 
HETATM   13  C2  UNK   900      27.187 -27.775 -51.802  1.00  0.00     0.156 C 
HETATM   14  C1  UNK   900      26.716 -26.511 -52.555  1.00  0.00     0.086 C 
HETATM   15  O1  UNK   900      25.519 -25.953 -51.979  1.00  0.00    -0.338 OA
HETATM   16  C6  UNK   900      27.772 -25.397 -52.464  1.00  0.00     0.049 C 
HETATM   17  C7  UNK   900      26.454 -26.798 -54.044  1.00  0.00     0.049 C 
HETATM   18  C12 UNK   900      23.315 -26.270 -51.245  1.00  0.00     0.038 A 
HETATM   19  C13 UNK   900      22.268 -27.081 -50.811  1.00  0.00     0.010 A 
BRANCH  13  20
HETATM   20  O2  UNK   900      27.557 -27.457 -50.457  1.00  0.00    -0.392 OA
HETATM   21  H16 UNK   900      27.601 -28.291 -49.958  1.00  0.00     0.210 HD
ENDBRANCH  13  20
ENDBRANCH   7   8
ENDBRANCH   3   7
BRANCH   4  22
HETATM   22  C16 UNK   900      22.588 -31.878 -48.703  1.00  0.00    -0.024 A 
HETATM   23  C18 UNK   900      23.870 -31.553 -48.263  1.00  0.00     0.015 A 
HETATM   24  C20 UNK   900      24.951 -32.370 -48.595  1.00  0.00     0.037 A 
HETATM   25  C22 UNK   900      24.749 -33.515 -49.367  1.00  0.00     0.065 A 
HETATM   26  C21 UNK   900      23.466 -33.841 -49.807  1.00  0.00     0.037 A 
HETATM   27  C19 UNK   900      22.385 -33.022 -49.476  1.00  0.00     0.015 A 
BRANCH  25  28
HETATM   28  O6  UNK   900      25.803 -34.311 -49.691  1.00  0.00    -0.361 OA
HETATM   29  H22 UNK   900      25.517 -35.241 -49.657  1.00  0.00     0.217 HD
ENDBRANCH  25  28
ENDBRANCH   4  22
BRANCH   5  30
HETATM   30  O4  UNK   900      20.098 -32.601 -47.126  1.00  0.00    -0.355 OA
HETATM   31  H19 UNK   900      19.975 -32.476 -46.169  1.00  0.00     0.218 HD
ENDBRANCH   5  30
TORSDOF 6
ENDMDL
MODEL 4
REMARK VINA RESULT:      -6.6      2.186      3.819
REMARK  6 active torsions:
REMARK  status: ('A' for Active; 'I' for Inactive)
REMARK    1  A    between atoms: O2_2  and  C2_8 
REMARK    2  A    between atoms: O4_4  and  C15_21 
REMARK    3  A    between atoms: O6_6  and  C22_28 
REMARK    4  A    between atoms: C8_14  and  C10_16 
REMARK    5  A    between atoms: C10_16  and  C11_17 
REMARK    6  A    between atoms: C14_20  and  C16_22 
ROOT
HETATM    1  O3  UNK   900      38.087 -39.520 -55.421  1.00  0.00    -0.305 OA
HETATM    2  O5  UNK   900      37.350 -41.413 -54.341  1.00  0.00    -0.257 OA
HETATM    3  C11 UNK   900      37.461 -38.464 -56.175  1.00  0.00     0.173 A 
HETATM    4  C14 UNK   900      36.016 -38.831 -56.177  1.00  0.00     0.021 A 
HETATM    5  C15 UNK   900      35.841 -39.970 -55.502  1.00  0.00     0.151 A 
HETATM    6  C17 UNK   900      37.145 -40.414 -55.007  1.00  0.00     0.318 A 
ENDROOT
BRANCH   3   7
HETATM    7  C10 UNK   900      37.766 -37.134 -55.488  1.00  0.00     0.076 C 
BRANCH   7   8
HETATM    8  C8  UNK   900      37.801 -35.994 -56.448  1.00  0.00    -0.055 A 
HETATM    9  C9  UNK   900      36.627 -35.309 -56.763  1.00  0.00     0.017 A 
HETATM   10  C4  UNK   900      36.648 -34.239 -57.669  1.00  0.00    -0.022 A 
HETATM   11  C3  UNK   900      35.371 -33.516 -57.994  1.00  0.00     0.076 C 
HETATM   12  C5  UNK   900      37.867 -33.849 -58.235  1.00  0.00     0.076 A 
HETATM   13  C2  UNK   900      35.533 -32.669 -59.252  1.00  0.00     0.156 C 
HETATM   14  C1  UNK   900      36.882 -31.917 -59.264  1.00  0.00     0.086 C 
HETATM   15  O1  UNK   900      38.002 -32.813 -59.119  1.00  0.00    -0.338 OA
HETATM   16  C6  UNK   900      37.098 -31.206 -60.610  1.00  0.00     0.049 C 
HETATM   17  C7  UNK   900      36.956 -30.858 -58.149  1.00  0.00     0.049 C 
HETATM   18  C12 UNK   900      39.039 -34.544 -57.926  1.00  0.00     0.038 A 
HETATM   19  C13 UNK   900      39.006 -35.613 -57.033  1.00  0.00     0.010 A 
BRANCH  13  20
HETATM   20  O2  UNK   900      35.430 -33.547 -60.377  1.00  0.00    -0.392 OA
HETATM   21  H16 UNK   900      36.318 -33.896 -60.562  1.00  0.00     0.210 HD
ENDBRANCH  13  20
ENDBRANCH   7   8
ENDBRANCH   3   7
BRANCH   4  22
HETATM   22  C16 UNK   900      34.994 -38.066 -56.853  1.00  0.00    -0.024 A 
HETATM   23  C18 UNK   900      33.870 -37.632 -56.153  1.00  0.00     0.015 A 
HETATM   24  C20 UNK   900      32.882 -36.895 -56.806  1.00  0.00     0.037 A 
HETATM   25  C22 UNK   900      33.019 -36.592 -58.161  1.00  0.00     0.065 A 
HETATM   26  C21 UNK   900      34.145 -37.026 -58.862  1.00  0.00     0.037 A 
HETATM   27  C19 UNK   900      35.132 -37.763 -58.208  1.00  0.00     0.015 A 
BRANCH  25  28
HETATM   28  O6  UNK   900      32.055 -35.874 -58.799  1.00  0.00    -0.361 OA
HETATM   29  H22 UNK   900      31.277 -36.443 -58.935  1.00  0.00     0.217 HD
ENDBRANCH  25  28
ENDBRANCH   4  22
BRANCH   5  30
HETATM   30  O4  UNK   900      34.680 -40.646 -55.286  1.00  0.00    -0.355 OA
HETATM   31  H19 UNK   900      34.450 -41.096 -56.117  1.00  0.00     0.218 HD
ENDBRANCH   5  30
TORSDOF 6
ENDMDL
MODEL 5
REMARK VINA RESULT:      -6.6     28.651     30.780
REMARK  6 active torsions:
REMARK  status: ('A' for Active; 'I' for Inactive)
REMARK    1  A    between atoms: O2_2  and  C2_8 
REMARK    2  A    between atoms: O4_4  and  C15_21 
REMARK    3  A    between atoms: O6_6  and  C22_28 
REMARK    4  A    between atoms: C8_14  and  C10_16 
REMARK    5  A    between atoms: C10_16  and  C11_17 
REMARK    6  A    between atoms: C14_20  and  C16_22 
ROOT
HETATM    1  O3  UNK   900       5.890 -41.781 -64.635  1.00  0.00    -0.305 OA
HETATM    2  O5  UNK   900       6.085 -42.977 -66.591  1.00  0.00    -0.257 OA
HETATM    3  C11 UNK   900       5.449 -42.076 -63.295  1.00  0.00     0.173 A 
HETATM    4  C14 UNK   900       5.049 -43.512 -63.356  1.00  0.00     0.021 A 
HETATM    5  C15 UNK   900       5.240 -43.979 -64.593  1.00  0.00     0.151 A 
HETATM    6  C17 UNK   900       5.784 -42.896 -65.413  1.00  0.00     0.318 A 
ENDROOT
BRANCH   3   7
HETATM    7  C10 UNK   900       6.600 -41.790 -62.333  1.00  0.00     0.076 C 
BRANCH   7   8
HETATM    8  C8  UNK   900       7.042 -40.367 -62.385  1.00  0.00    -0.055 A 
HETATM    9  C9  UNK   900       6.108 -39.352 -62.600  1.00  0.00     0.017 A 
HETATM   10  C4  UNK   900       6.514 -38.011 -62.656  1.00  0.00    -0.022 A 
HETATM   11  C3  UNK   900       5.491 -36.935 -62.889  1.00  0.00     0.076 C 
HETATM   12  C5  UNK   900       7.865 -37.700 -62.469  1.00  0.00     0.076 A 
HETATM   13  C2  UNK   900       6.163 -35.627 -63.293  1.00  0.00     0.156 C 
HETATM   14  C1  UNK   900       7.417 -35.342 -62.439  1.00  0.00     0.086 C 
HETATM   15  O1  UNK   900       8.366 -36.426 -62.492  1.00  0.00    -0.338 OA
HETATM   16  C6  UNK   900       8.171 -34.112 -62.972  1.00  0.00     0.049 C 
HETATM   17  C7  UNK   900       7.058 -35.078 -60.966  1.00  0.00     0.049 C 
HETATM   18  C12 UNK   900       8.800 -38.718 -62.265  1.00  0.00     0.038 A 
HETATM   19  C13 UNK   900       8.388 -40.050 -62.222  1.00  0.00     0.010 A 
BRANCH  13  20
HETATM   20  O2  UNK   900       6.503 -35.731 -64.679  1.00  0.00    -0.392 OA
HETATM   21  H16 UNK   900       7.379 -36.148 -64.737  1.00  0.00     0.210 HD
ENDBRANCH  13  20
ENDBRANCH   7   8
ENDBRANCH   3   7
BRANCH   4  22
HETATM   22  C16 UNK   900       4.504 -44.242 -62.236  1.00  0.00    -0.024 A 
HETATM   23  C18 UNK   900       5.044 -45.476 -61.878  1.00  0.00     0.015 A 
HETATM   24  C20 UNK   900       4.516 -46.182 -60.797  1.00  0.00     0.037 A 
HETATM   25  C22 UNK   900       3.448 -45.653 -60.073  1.00  0.00     0.065 A 
HETATM   26  C21 UNK   900       2.907 -44.417 -60.431  1.00  0.00     0.037 A 
HETATM   27  C19 UNK   900       3.434 -43.712 -61.513  1.00  0.00     0.015 A 
BRANCH  25  28
HETATM   28  O6  UNK   900       2.931 -46.342 -59.020  1.00  0.00    -0.361 OA
HETATM   29  H22 UNK   900       2.540 -45.711 -58.391  1.00  0.00     0.217 HD
ENDBRANCH  25  28
ENDBRANCH   4  22
BRANCH   5  30
HETATM   30  O4  UNK   900       4.987 -45.230 -65.065  1.00  0.00    -0.355 OA
HETATM   31  H19 UNK   900       4.324 -45.631 -64.477  1.00  0.00     0.218 HD
ENDBRANCH   5  30
TORSDOF 6
ENDMDL
MODEL 6
REMARK VINA RESULT:      -6.5     13.597     16.612
REMARK  6 active torsions:
REMARK  status: ('A' for Active; 'I' for Inactive)
REMARK    1  A    between atoms: O2_2  and  C2_8 
REMARK    2  A    between atoms: O4_4  and  C15_21 
REMARK    3  A    between atoms: O6_6  and  C22_28 
REMARK    4  A    between atoms: C8_14  and  C10_16 
REMARK    5  A    between atoms: C10_16  and  C11_17 
REMARK    6  A    between atoms: C14_20  and  C16_22 
ROOT
HETATM    1  O3  UNK   900      25.409 -26.634 -53.817  1.00  0.00    -0.305 OA
HETATM    2  O5  UNK   900      26.982 -25.435 -54.991  1.00  0.00    -0.257 OA
HETATM    3  C11 UNK   900      25.337 -27.212 -52.499  1.00  0.00     0.173 A 
HETATM    4  C14 UNK   900      26.658 -26.885 -51.890  1.00  0.00     0.021 A 
HETATM    5  C15 UNK   900      27.399 -26.200 -52.766  1.00  0.00     0.151 A 
HETATM    6  C17 UNK   900      26.615 -26.024 -53.989  1.00  0.00     0.318 A 
ENDROOT
BRANCH   3   7
HETATM    7  C10 UNK   900      24.145 -26.600 -51.767  1.00  0.00     0.076 C 
BRANCH   7   8
HETATM    8  C8  UNK   900      23.286 -27.631 -51.117  1.00  0.00    -0.055 A 
HETATM    9  C9  UNK   900      23.844 -28.837 -50.690  1.00  0.00     0.017 A 
HETATM   10  C4  UNK   900      23.046 -29.816 -50.083  1.00  0.00    -0.022 A 
HETATM   11  C3  UNK   900      23.668 -31.107 -49.632  1.00  0.00     0.076 C 
HETATM   12  C5  UNK   900      21.684 -29.560 -49.888  1.00  0.00     0.076 A 
HETATM   13  C2  UNK   900      22.598 -32.160 -49.363  1.00  0.00     0.156 C 
HETATM   14  C1  UNK   900      21.391 -31.567 -48.604  1.00  0.00     0.086 C 
HETATM   15  O1  UNK   900      20.818 -30.440 -49.297  1.00  0.00    -0.338 OA
HETATM   16  C6  UNK   900      20.256 -32.598 -48.493  1.00  0.00     0.049 C 
HETATM   17  C7  UNK   900      21.773 -31.124 -47.181  1.00  0.00     0.049 C 
HETATM   18  C12 UNK   900      21.125 -28.357 -50.326  1.00  0.00     0.038 A 
HETATM   19  C13 UNK   900      21.925 -27.394 -50.939  1.00  0.00     0.010 A 
BRANCH  13  20
HETATM   20  O2  UNK   900      22.193 -32.692 -50.628  1.00  0.00    -0.392 OA
HETATM   21  H16 UNK   900      21.624 -33.461 -50.457  1.00  0.00     0.210 HD
ENDBRANCH  13  20
ENDBRANCH   7   8
ENDBRANCH   3   7
BRANCH   4  22
HETATM   22  C16 UNK   900      27.057 -27.299 -50.565  1.00  0.00    -0.024 A 
HETATM   23  C18 UNK   900      26.916 -26.424 -49.489  1.00  0.00     0.015 A 
HETATM   24  C20 UNK   900      27.302 -26.823 -48.210  1.00  0.00     0.037 A 
HETATM   25  C22 UNK   900      27.831 -28.098 -48.007  1.00  0.00     0.065 A 
HETATM   26  C21 UNK   900      27.972 -28.974 -49.084  1.00  0.00     0.037 A 
HETATM   27  C19 UNK   900      27.586 -28.575 -50.363  1.00  0.00     0.015 A 
BRANCH  25  28
HETATM   28  O6  UNK   900      28.209 -28.487 -46.759  1.00  0.00    -0.361 OA
HETATM   29  H22 UNK   900      27.805 -27.889 -46.106  1.00  0.00     0.217 HD
ENDBRANCH  25  28
ENDBRANCH   4  22
BRANCH   5  30
HETATM   30  O4  UNK   900      28.666 -25.730 -52.605  1.00  0.00    -0.355 OA
HETATM   31  H19 UNK   900      28.750 -25.440 -51.681  1.00  0.00     0.218 HD
ENDBRANCH   5  30
TORSDOF 6
ENDMDL
MODEL 7
REMARK VINA RESULT:      -6.4      2.523      4.599
REMARK  6 active torsions:
REMARK  status: ('A' for Active; 'I' for Inactive)
REMARK    1  A    between atoms: O2_2  and  C2_8 
REMARK    2  A    between atoms: O4_4  and  C15_21 
REMARK    3  A    between atoms: O6_6  and  C22_28 
REMARK    4  A    between atoms: C8_14  and  C10_16 
REMARK    5  A    between atoms: C10_16  and  C11_17 
REMARK    6  A    between atoms: C14_20  and  C16_22 
ROOT
HETATM    1  O3  UNK   900      37.790 -40.600 -56.113  1.00  0.00    -0.305 OA
HETATM    2  O5  UNK   900      36.518 -42.103 -54.923  1.00  0.00    -0.257 OA
HETATM    3  C11 UNK   900      37.533 -39.360 -56.800  1.00  0.00     0.173 A 
HETATM    4  C14 UNK   900      36.068 -39.146 -56.619  1.00  0.00     0.021 A 
HETATM    5  C15 UNK   900      35.551 -40.154 -55.911  1.00  0.00     0.151 A 
HETATM    6  C17 UNK   900      36.634 -41.079 -55.573  1.00  0.00     0.318 A 
ENDROOT
BRANCH   3   7
HETATM    7  C10 UNK   900      38.403 -38.272 -56.176  1.00  0.00     0.076 C 
BRANCH   7   8
HETATM    8  C8  UNK   900      38.401 -37.014 -56.976  1.00  0.00    -0.055 A 
HETATM    9  C9  UNK   900      38.644 -37.060 -58.350  1.00  0.00     0.017 A 
HETATM   10  C4  UNK   900      38.650 -35.883 -59.111  1.00  0.00    -0.022 A 
HETATM   11  C3  UNK   900      38.915 -35.956 -60.589  1.00  0.00     0.076 C 
HETATM   12  C5  UNK   900      38.384 -34.662 -58.481  1.00  0.00     0.076 A 
HETATM   13  C2  UNK   900      39.255 -34.578 -61.147  1.00  0.00     0.156 C 
HETATM   14  C1  UNK   900      38.328 -33.484 -60.572  1.00  0.00     0.086 C 
HETATM   15  O1  UNK   900      38.353 -33.458 -59.131  1.00  0.00    -0.338 OA
HETATM   16  C6  UNK   900      38.793 -32.087 -61.015  1.00  0.00     0.049 C 
HETATM   17  C7  UNK   900      36.871 -33.670 -61.033  1.00  0.00     0.049 C 
HETATM   18  C12 UNK   900      38.151 -34.618 -57.104  1.00  0.00     0.038 A 
HETATM   19  C13 UNK   900      38.159 -35.792 -56.353  1.00  0.00     0.010 A 
BRANCH  13  20
HETATM   20  O2  UNK   900      40.622 -34.309 -60.822  1.00  0.00    -0.392 OA
HETATM   21  H16 UNK   900      41.151 -34.459 -61.624  1.00  0.00     0.210 HD
ENDBRANCH  13  20
ENDBRANCH   7   8
ENDBRANCH   3   7
BRANCH   4  22
HETATM   22  C16 UNK   900      35.345 -38.027 -57.176  1.00  0.00    -0.024 A 
HETATM   23  C18 UNK   900      34.711 -37.117 -56.331  1.00  0.00     0.015 A 
HETATM   24  C20 UNK   900      34.011 -36.036 -56.869  1.00  0.00     0.037 A 
HETATM   25  C22 UNK   900      33.945 -35.866 -58.252  1.00  0.00     0.065 A 
HETATM   26  C21 UNK   900      34.580 -36.777 -59.097  1.00  0.00     0.037 A 
HETATM   27  C19 UNK   900      35.280 -37.858 -58.559  1.00  0.00     0.015 A 
BRANCH  25  28
HETATM   28  O6  UNK   900      33.261 -34.814 -58.776  1.00  0.00    -0.361 OA
HETATM   29  H22 UNK   900      33.371 -34.043 -58.191  1.00  0.00     0.217 HD
ENDBRANCH  25  28
ENDBRANCH   4  22
BRANCH   5  30
HETATM   30  O4  UNK   900      34.254 -40.342 -55.544  1.00  0.00    -0.355 OA
HETATM   31  H19 UNK   900      33.766 -40.615 -56.339  1.00  0.00     0.218 HD
ENDBRANCH   5  30
TORSDOF 6
ENDMDL
MODEL 8
REMARK VINA RESULT:      -6.4     33.517     35.612
REMARK  6 active torsions:
REMARK  status: ('A' for Active; 'I' for Inactive)
REMARK    1  A    between atoms: O2_2  and  C2_8 
REMARK    2  A    between atoms: O4_4  and  C15_21 
REMARK    3  A    between atoms: O6_6  and  C22_28 
REMARK    4  A    between atoms: C8_14  and  C10_16 
REMARK    5  A    between atoms: C10_16  and  C11_17 
REMARK    6  A    between atoms: C14_20  and  C16_22 
ROOT
HETATM    1  O3  UNK   900       3.596 -45.396 -70.884  1.00  0.00    -0.305 OA
HETATM    2  O5  UNK   900       2.905 -43.214 -71.117  1.00  0.00    -0.257 OA
HETATM    3  C11 UNK   900       4.304 -46.338 -71.713  1.00  0.00     0.173 A 
HETATM    4  C14 UNK   900       4.564 -45.585 -72.973  1.00  0.00     0.021 A 
HETATM    5  C15 UNK   900       4.058 -44.353 -72.873  1.00  0.00     0.151 A 
HETATM    6  C17 UNK   900       3.450 -44.214 -71.548  1.00  0.00     0.318 A 
ENDROOT
BRANCH   3   7
HETATM    7  C10 UNK   900       5.568 -46.776 -70.976  1.00  0.00     0.076 C 
BRANCH   7   8
HETATM    8  C8  UNK   900       6.167 -48.010 -71.560  1.00  0.00    -0.055 A 
HETATM    9  C9  UNK   900       7.552 -48.179 -71.565  1.00  0.00     0.017 A 
HETATM   10  C4  UNK   900       8.127 -49.332 -72.116  1.00  0.00    -0.022 A 
HETATM   11  C3  UNK   900       9.621 -49.493 -72.112  1.00  0.00     0.076 C 
HETATM   12  C5  UNK   900       7.293 -50.326 -72.640  1.00  0.00     0.076 A 
HETATM   13  C2  UNK   900      10.052 -50.594 -73.075  1.00  0.00     0.156 C 
HETATM   14  C1  UNK   900       9.132 -51.830 -72.975  1.00  0.00     0.086 C 
HETATM   15  O1  UNK   900       7.747 -51.493 -73.190  1.00  0.00    -0.338 OA
HETATM   16  C6  UNK   900       9.478 -52.857 -74.067  1.00  0.00     0.049 C 
HETATM   17  C7  UNK   900       9.260 -52.528 -71.609  1.00  0.00     0.049 C 
HETATM   18  C12 UNK   900       5.907 -50.149 -72.644  1.00  0.00     0.038 A 
HETATM   19  C13 UNK   900       5.345 -48.994 -72.104  1.00  0.00     0.010 A 
BRANCH  13  20
HETATM   20  O2  UNK   900      10.023 -50.043 -74.396  1.00  0.00    -0.392 OA
HETATM   21  H16 UNK   900      10.873 -49.597 -74.548  1.00  0.00     0.210 HD
ENDBRANCH  13  20
ENDBRANCH   7   8
ENDBRANCH   3   7
BRANCH   4  22
HETATM   22  C16 UNK   900       5.229 -46.150 -74.123  1.00  0.00    -0.024 A 
HETATM   23  C18 UNK   900       6.573 -45.863 -74.362  1.00  0.00     0.015 A 
HETATM   24  C20 UNK   900       7.216 -46.407 -75.475  1.00  0.00     0.037 A 
HETATM   25  C22 UNK   900       6.514 -47.238 -76.348  1.00  0.00     0.065 A 
HETATM   26  C21 UNK   900       5.170 -47.525 -76.109  1.00  0.00     0.037 A 
HETATM   27  C19 UNK   900       4.527 -46.981 -74.997  1.00  0.00     0.015 A 
BRANCH  25  28
HETATM   28  O6  UNK   900       7.141 -47.767 -77.434  1.00  0.00    -0.361 OA
HETATM   29  H22 UNK   900       6.547 -47.704 -78.202  1.00  0.00     0.217 HD
ENDBRANCH  25  28
ENDBRANCH   4  22
BRANCH   5  30
HETATM   30  O4  UNK   900       4.071 -43.362 -73.805  1.00  0.00    -0.355 OA
HETATM   31  H19 UNK   900       3.407 -42.704 -73.536  1.00  0.00     0.218 HD
ENDBRANCH   5  30
TORSDOF 6
ENDMDL
MODEL 9
REMARK VINA RESULT:      -6.1      1.646      4.211
REMARK  6 active torsions:
REMARK  status: ('A' for Active; 'I' for Inactive)
REMARK    1  A    between atoms: O2_2  and  C2_8 
REMARK    2  A    between atoms: O4_4  and  C15_21 
REMARK    3  A    between atoms: O6_6  and  C22_28 
REMARK    4  A    between atoms: C8_14  and  C10_16 
REMARK    5  A    between atoms: C10_16  and  C11_17 
REMARK    6  A    between atoms: C14_20  and  C16_22 
ROOT
HETATM    1  O3  UNK   900      38.813 -37.211 -59.505  1.00  0.00    -0.305 OA
HETATM    2  O5  UNK   900      39.723 -39.324 -59.464  1.00  0.00    -0.257 OA
HETATM    3  C11 UNK   900      37.622 -36.600 -58.974  1.00  0.00     0.173 A 
HETATM    4  C14 UNK   900      36.922 -37.720 -58.280  1.00  0.00     0.021 A 
HETATM    5  C15 UNK   900      37.635 -38.842 -58.406  1.00  0.00     0.151 A 
HETATM    6  C17 UNK   900      38.844 -38.533 -59.172  1.00  0.00     0.318 A 
ENDROOT
BRANCH   3   7
HETATM    7  C10 UNK   900      38.036 -35.457 -58.050  1.00  0.00     0.076 C 
BRANCH   7   8
HETATM    8  C8  UNK   900      37.330 -34.183 -58.371  1.00  0.00    -0.055 A 
HETATM    9  C9  UNK   900      38.060 -33.009 -58.560  1.00  0.00     0.017 A 
HETATM   10  C4  UNK   900      37.407 -31.804 -58.857  1.00  0.00    -0.022 A 
HETATM   11  C3  UNK   900      38.212 -30.552 -59.055  1.00  0.00     0.076 C 
HETATM   12  C5  UNK   900      36.013 -31.799 -58.986  1.00  0.00     0.076 A 
HETATM   13  C2  UNK   900      37.321 -29.316 -58.984  1.00  0.00     0.156 C 
HETATM   14  C1  UNK   900      35.997 -29.524 -59.750  1.00  0.00     0.086 C 
HETATM   15  O1  UNK   900      35.279 -30.684 -59.285  1.00  0.00    -0.338 OA
HETATM   16  C6  UNK   900      35.045 -28.337 -59.526  1.00  0.00     0.049 C 
HETATM   17  C7  UNK   900      36.229 -29.667 -61.265  1.00  0.00     0.049 C 
HETATM   18  C12 UNK   900      35.284 -32.974 -58.786  1.00  0.00     0.038 A 
HETATM   19  C13 UNK   900      35.942 -34.164 -58.480  1.00  0.00     0.010 A 
BRANCH  13  20
HETATM   20  O2  UNK   900      37.072 -29.047 -57.601  1.00  0.00    -0.392 OA
HETATM   21  H16 UNK   900      36.127 -28.838 -57.507  1.00  0.00     0.210 HD
ENDBRANCH  13  20
ENDBRANCH   7   8
ENDBRANCH   3   7
BRANCH   4  22
HETATM   22  C16 UNK   900      35.646 -37.582 -57.618  1.00  0.00    -0.024 A 
HETATM   23  C18 UNK   900      34.538 -37.120 -58.327  1.00  0.00     0.015 A 
HETATM   24  C20 UNK   900      33.306 -36.985 -57.686  1.00  0.00     0.037 A 
HETATM   25  C22 UNK   900      33.183 -37.312 -56.336  1.00  0.00     0.065 A 
HETATM   26  C21 UNK   900      34.291 -37.775 -55.626  1.00  0.00     0.037 A 
HETATM   27  C19 UNK   900      35.523 -37.910 -56.267  1.00  0.00     0.015 A 
BRANCH  25  28
HETATM   28  O6  UNK   900      31.982 -37.179 -55.711  1.00  0.00    -0.361 OA
HETATM   29  H22 UNK   900      32.037 -37.592 -54.831  1.00  0.00     0.217 HD
ENDBRANCH  25  28
ENDBRANCH   4  22
BRANCH   5  30
HETATM   30  O4  UNK   900      37.337 -40.082 -57.933  1.00  0.00    -0.355 OA
HETATM   31  H19 UNK   900      36.369 -40.140 -57.864  1.00  0.00     0.218 HD
ENDBRANCH   5  30
TORSDOF 6
ENDMDL
