MODEL 1
REMARK VINA RESULT:      -5.7      0.000      0.000
REMARK  5 active torsions:
REMARK  status: ('A' for Active; 'I' for Inactive)
REMARK    1  A    between atoms: O2_2  and  C2_5 
REMARK    2  A    between atoms: O3_3  and  C4_7 
REMARK    3  A    between atoms: C1_4  and  C5_8 
REMARK    4  A    between atoms: C3_6  and  C6_9 
REMARK    5  A    between atoms: C6_9  and  C8_11 
ROOT
HETATM    1  O1  UNK   900      20.805 -38.227 -69.576  1.00  0.00    -0.353 OA
HETATM    2  C1  UNK   900      22.133 -40.206 -69.708  1.00  0.00     0.053 C 
HETATM    3  C2  UNK   900      22.072 -39.532 -71.079  1.00  0.00     0.109 C 
HETATM    4  C3  UNK   900      21.659 -39.079 -68.785  1.00  0.00     0.132 C 
HETATM    5  C4  UNK   900      20.784 -38.718 -70.927  1.00  0.00     0.291 C 
HETATM    6  C7  UNK   900      23.269 -38.626 -71.387  1.00  0.00     0.051 C 
ENDROOT
BRANCH   3   7
HETATM    7  O2  UNK   900      21.968 -40.500 -72.113  1.00  0.00    -0.385 OA
HETATM    8  H13 UNK   900      21.310 -41.160 -71.836  1.00  0.00     0.210 HD
ENDBRANCH   3   7
BRANCH   2   9
HETATM    9  C5  UNK   900      23.476 -40.801 -69.307  1.00  0.00     0.006 C 
HETATM   10  C9  UNK   900      23.387 -42.305 -69.119  1.00  0.00     0.006 C 
ENDBRANCH   2   9
BRANCH   5  11
HETATM   11  O3  UNK   900      19.645 -39.553 -71.120  1.00  0.00    -0.368 OA
HETATM   12  H17 UNK   900      18.859 -38.992 -71.008  1.00  0.00     0.212 HD
ENDBRANCH   5  11
BRANCH   4  13
HETATM   13  C6  UNK   900      20.886 -39.576 -67.575  1.00  0.00     0.032 C 
BRANCH  13  14
HETATM   14  C8  UNK   900      21.486 -39.052 -66.272  1.00  0.00    -0.002 C 
HETATM   15  C10 UNK   900      22.525 -40.011 -65.710  1.00  0.00     0.005 C 
ENDBRANCH  13  14
ENDBRANCH   4  13
TORSDOF 5
ENDMDL
MODEL 2
REMARK VINA RESULT:      -5.7      4.003      4.980
REMARK  5 active torsions:
REMARK  status: ('A' for Active; 'I' for Inactive)
REMARK    1  A    between atoms: O2_2  and  C2_5 
REMARK    2  A    between atoms: O3_3  and  C4_7 
REMARK    3  A    between atoms: C1_4  and  C5_8 
REMARK    4  A    between atoms: C3_6  and  C6_9 
REMARK    5  A    between atoms: C6_9  and  C8_11 
ROOT
HETATM    1  O1  UNK   900      23.077 -34.133 -66.713  1.00  0.00    -0.353 OA
HETATM    2  C1  UNK   900      22.479 -35.798 -68.316  1.00  0.00     0.053 C 
HETATM    3  C2  UNK   900      22.812 -34.488 -69.031  1.00  0.00     0.109 C 
HETATM    4  C3  UNK   900      23.085 -35.560 -66.929  1.00  0.00     0.132 C 
HETATM    5  C4  UNK   900      22.574 -33.488 -67.896  1.00  0.00     0.291 C 
HETATM    6  C7  UNK   900      24.252 -34.404 -69.551  1.00  0.00     0.051 C 
ENDROOT
BRANCH   3   7
HETATM    7  O2  UNK   900      21.930 -34.270 -70.122  1.00  0.00    -0.385 OA
HETATM    8  H13 UNK   900      21.195 -34.902 -70.040  1.00  0.00     0.210 HD
ENDBRANCH   3   7
BRANCH   2   9
HETATM    9  C5  UNK   900      22.968 -37.075 -68.985  1.00  0.00     0.006 C 
HETATM   10  C9  UNK   900      21.819 -37.866 -69.585  1.00  0.00     0.006 C 
ENDBRANCH   2   9
BRANCH   5  11
HETATM   11  O3  UNK   900      21.180 -33.229 -67.749  1.00  0.00    -0.368 OA
HETATM   12  H17 UNK   900      21.058 -32.268 -67.843  1.00  0.00     0.212 HD
ENDBRANCH   5  11
BRANCH   4  13
HETATM   13  C6  UNK   900      22.314 -36.239 -65.810  1.00  0.00     0.032 C 
BRANCH  13  14
HETATM   14  C8  UNK   900      23.233 -37.082 -64.928  1.00  0.00    -0.002 C 
HETATM   15  C10 UNK   900      22.900 -38.563 -65.029  1.00  0.00     0.005 C 
ENDBRANCH  13  14
ENDBRANCH   4  13
TORSDOF 5
ENDMDL
MODEL 3
REMARK VINA RESULT:      -5.6      4.864      6.200
REMARK  5 active torsions:
REMARK  status: ('A' for Active; 'I' for Inactive)
REMARK    1  A    between atoms: O2_2  and  C2_5 
REMARK    2  A    between atoms: O3_3  and  C4_7 
REMARK    3  A    between atoms: C1_4  and  C5_8 
REMARK    4  A    between atoms: C3_6  and  C6_9 
REMARK    5  A    between atoms: C6_9  and  C8_11 
ROOT
HETATM    1  O1  UNK   900      21.591 -34.663 -67.230  1.00  0.00    -0.353 OA
HETATM    2  C1  UNK   900      23.141 -34.105 -68.957  1.00  0.00     0.053 C 
HETATM    3  C2  UNK   900      23.460 -33.301 -67.697  1.00  0.00     0.109 C 
HETATM    4  C3  UNK   900      22.232 -35.206 -68.403  1.00  0.00     0.132 C 
HETATM    5  C4  UNK   900      22.099 -33.339 -66.996  1.00  0.00     0.291 C 
HETATM    6  C7  UNK   900      24.554 -33.917 -66.818  1.00  0.00     0.051 C 
ENDROOT
BRANCH   3   7
HETATM    7  O2  UNK   900      23.848 -31.976 -68.028  1.00  0.00    -0.385 OA
HETATM    8  H13 UNK   900      23.513 -31.385 -67.331  1.00  0.00     0.210 HD
ENDBRANCH   3   7
BRANCH   2   9
HETATM    9  C5  UNK   900      24.335 -34.635 -69.740  1.00  0.00     0.006 C 
HETATM   10  C9  UNK   900      24.644 -36.077 -69.378  1.00  0.00     0.006 C 
ENDBRANCH   2   9
BRANCH   5  11
HETATM   11  O3  UNK   900      21.220 -32.375 -67.570  1.00  0.00    -0.368 OA
HETATM   12  H17 UNK   900      21.755 -31.820 -68.164  1.00  0.00     0.212 HD
ENDBRANCH   5  11
BRANCH   4  13
HETATM   13  C6  UNK   900      21.168 -35.661 -69.388  1.00  0.00     0.032 C 
BRANCH  13  14
HETATM   14  C8  UNK   900      21.145 -37.182 -69.526  1.00  0.00    -0.002 C 
HETATM   15  C10 UNK   900      21.602 -37.866 -68.247  1.00  0.00     0.005 C 
ENDBRANCH  13  14
ENDBRANCH   4  13
TORSDOF 5
ENDMDL
MODEL 4
REMARK VINA RESULT:      -5.6      3.833      5.109
REMARK  5 active torsions:
REMARK  status: ('A' for Active; 'I' for Inactive)
REMARK    1  A    between atoms: O2_2  and  C2_5 
REMARK    2  A    between atoms: O3_3  and  C4_7 
REMARK    3  A    between atoms: C1_4  and  C5_8 
REMARK    4  A    between atoms: C3_6  and  C6_9 
REMARK    5  A    between atoms: C6_9  and  C8_11 
ROOT
HETATM    1  O1  UNK   900      23.073 -34.877 -68.550  1.00  0.00    -0.353 OA
HETATM    2  C1  UNK   900      21.602 -36.252 -67.268  1.00  0.00     0.053 C 
HETATM    3  C2  UNK   900      20.902 -35.801 -68.551  1.00  0.00     0.109 C 
HETATM    4  C3  UNK   900      23.069 -35.957 -67.593  1.00  0.00     0.132 C 
HETATM    5  C4  UNK   900      21.714 -34.545 -68.878  1.00  0.00     0.291 C 
HETATM    6  C7  UNK   900      20.969 -36.819 -69.695  1.00  0.00     0.051 C 
ENDROOT
BRANCH   3   7
HETATM    7  O2  UNK   900      19.537 -35.499 -68.302  1.00  0.00    -0.385 OA
HETATM    8  H13 UNK   900      19.507 -34.754 -67.679  1.00  0.00     0.210 HD
ENDBRANCH   3   7
BRANCH   2   9
HETATM    9  C5  UNK   900      21.349 -37.688 -66.831  1.00  0.00     0.006 C 
HETATM   10  C9  UNK   900      21.080 -37.778 -65.339  1.00  0.00     0.006 C 
ENDBRANCH   2   9
BRANCH   5  11
HETATM   11  O3  UNK   900      21.276 -33.450 -68.077  1.00  0.00    -0.368 OA
HETATM   12  H17 UNK   900      21.896 -32.717 -68.235  1.00  0.00     0.212 HD
ENDBRANCH   5  11
BRANCH   4  13
HETATM   13  C6  UNK   900      23.886 -35.551 -66.378  1.00  0.00     0.032 C 
BRANCH  13  14
HETATM   14  C8  UNK   900      24.998 -36.556 -66.088  1.00  0.00    -0.002 C 
HETATM   15  C10 UNK   900      26.348 -36.053 -66.576  1.00  0.00     0.005 C 
ENDBRANCH  13  14
ENDBRANCH   4  13
TORSDOF 5
ENDMDL
MODEL 5
REMARK VINA RESULT:      -5.3     15.943     17.753
REMARK  5 active torsions:
REMARK  status: ('A' for Active; 'I' for Inactive)
REMARK    1  A    between atoms: O2_2  and  C2_5 
REMARK    2  A    between atoms: O3_3  and  C4_7 
REMARK    3  A    between atoms: C1_4  and  C5_8 
REMARK    4  A    between atoms: C3_6  and  C6_9 
REMARK    5  A    between atoms: C6_9  and  C8_11 
ROOT
HETATM    1  O1  UNK   900      33.031 -47.603 -59.907  1.00  0.00    -0.353 OA
HETATM    2  C1  UNK   900      32.091 -49.780 -59.629  1.00  0.00     0.053 C 
HETATM    3  C2  UNK   900      31.025 -48.719 -59.359  1.00  0.00     0.109 C 
HETATM    4  C3  UNK   900      33.164 -48.967 -60.361  1.00  0.00     0.132 C 
HETATM    5  C4  UNK   900      31.912 -47.522 -59.007  1.00  0.00     0.291 C 
HETATM    6  C7  UNK   900      30.127 -48.409 -60.563  1.00  0.00     0.051 C 
ENDROOT
BRANCH   3   7
HETATM    7  O2  UNK   900      30.196 -49.101 -58.272  1.00  0.00    -0.385 OA
HETATM    8  H13 UNK   900      29.701 -48.314 -57.985  1.00  0.00     0.210 HD
ENDBRANCH   3   7
BRANCH   2   9
HETATM    9  C5  UNK   900      31.635 -51.016 -60.393  1.00  0.00     0.006 C 
HETATM   10  C9  UNK   900      31.978 -52.292 -59.644  1.00  0.00     0.006 C 
ENDBRANCH   2   9
BRANCH   5  11
HETATM   11  O3  UNK   900      32.367 -47.623 -57.660  1.00  0.00    -0.368 OA
HETATM   12  H17 UNK   900      32.347 -48.566 -57.422  1.00  0.00     0.212 HD
ENDBRANCH   5  11
BRANCH   4  13
HETATM   13  C6  UNK   900      34.578 -49.449 -60.086  1.00  0.00     0.032 C 
BRANCH  13  14
HETATM   14  C8  UNK   900      35.099 -50.333 -61.218  1.00  0.00    -0.002 C 
HETATM   15  C10 UNK   900      35.667 -51.641 -60.689  1.00  0.00     0.005 C 
ENDBRANCH  13  14
ENDBRANCH   4  13
TORSDOF 5
ENDMDL
MODEL 6
REMARK VINA RESULT:      -5.1      3.413      4.963
REMARK  5 active torsions:
REMARK  status: ('A' for Active; 'I' for Inactive)
REMARK    1  A    between atoms: O2_2  and  C2_5 
REMARK    2  A    between atoms: O3_3  and  C4_7 
REMARK    3  A    between atoms: C1_4  and  C5_8 
REMARK    4  A    between atoms: C3_6  and  C6_9 
REMARK    5  A    between atoms: C6_9  and  C8_11 
ROOT
HETATM    1  O1  UNK   900      22.283 -38.933 -65.332  1.00  0.00    -0.353 OA
HETATM    2  C1  UNK   900      22.372 -37.550 -67.276  1.00  0.00     0.053 C 
HETATM    3  C2  UNK   900      22.444 -36.682 -66.019  1.00  0.00     0.109 C 
HETATM    4  C3  UNK   900      22.696 -38.938 -66.715  1.00  0.00     0.132 C 
HETATM    5  C4  UNK   900      21.797 -37.622 -64.999  1.00  0.00     0.291 C 
HETATM    6  C7  UNK   900      23.869 -36.302 -65.598  1.00  0.00     0.051 C 
ENDROOT
BRANCH   3   7
HETATM    7  O2  UNK   900      21.696 -35.487 -66.187  1.00  0.00    -0.385 OA
HETATM    8  H13 UNK   900      22.091 -34.989 -66.923  1.00  0.00     0.210 HD
ENDBRANCH   3   7
BRANCH   2   9
HETATM    9  C5  UNK   900      23.267 -37.135 -68.435  1.00  0.00     0.006 C 
HETATM   10  C9  UNK   900      22.453 -36.747 -69.657  1.00  0.00     0.006 C 
ENDBRANCH   2   9
BRANCH   5  11
HETATM   11  O3  UNK   900      20.378 -37.586 -65.123  1.00  0.00    -0.368 OA
HETATM   12  H17 UNK   900      20.172 -36.988 -65.863  1.00  0.00     0.212 HD
ENDBRANCH   5  11
BRANCH   4  13
HETATM   13  C6  UNK   900      21.983 -40.063 -67.445  1.00  0.00     0.032 C 
BRANCH  13  14
HETATM   14  C8  UNK   900      20.623 -39.615 -67.976  1.00  0.00    -0.002 C 
HETATM   15  C10 UNK   900      20.395 -40.089 -69.403  1.00  0.00     0.005 C 
ENDBRANCH  13  14
ENDBRANCH   4  13
TORSDOF 5
ENDMDL
MODEL 7
REMARK VINA RESULT:      -5.0     15.245     16.996
REMARK  5 active torsions:
REMARK  status: ('A' for Active; 'I' for Inactive)
REMARK    1  A    between atoms: O2_2  and  C2_5 
REMARK    2  A    between atoms: O3_3  and  C4_7 
REMARK    3  A    between atoms: C1_4  and  C5_8 
REMARK    4  A    between atoms: C3_6  and  C6_9 
REMARK    5  A    between atoms: C6_9  and  C8_11 
ROOT
HETATM    1  O1  UNK   900      32.498 -48.915 -58.679  1.00  0.00    -0.353 OA
HETATM    2  C1  UNK   900      31.823 -49.379 -60.921  1.00  0.00     0.053 C 
HETATM    3  C2  UNK   900      31.130 -48.111 -60.425  1.00  0.00     0.109 C 
HETATM    4  C3  UNK   900      32.953 -49.538 -59.899  1.00  0.00     0.132 C 
HETATM    5  C4  UNK   900      31.205 -48.331 -58.912  1.00  0.00     0.291 C 
HETATM    6  C7  UNK   900      31.832 -46.810 -60.832  1.00  0.00     0.051 C 
ENDROOT
BRANCH   3   7
HETATM    7  O2  UNK   900      29.788 -48.056 -60.886  1.00  0.00    -0.385 OA
HETATM    8  H13 UNK   900      29.284 -47.499 -60.267  1.00  0.00     0.210 HD
ENDBRANCH   3   7
BRANCH   2   9
HETATM    9  C5  UNK   900      32.305 -49.365 -62.366  1.00  0.00     0.006 C 
HETATM   10  C9  UNK   900      31.300 -50.021 -63.295  1.00  0.00     0.006 C 
ENDBRANCH   2   9
BRANCH   5  11
HETATM   11  O3  UNK   900      30.184 -49.234 -58.492  1.00  0.00    -0.368 OA
HETATM   12  H17 UNK   900      30.354 -50.082 -58.937  1.00  0.00     0.212 HD
ENDBRANCH   5  11
BRANCH   4  13
HETATM   13  C6  UNK   900      33.310 -50.987 -59.616  1.00  0.00     0.032 C 
BRANCH  13  14
HETATM   14  C8  UNK   900      32.081 -51.892 -59.686  1.00  0.00    -0.002 C 
HETATM   15  C10 UNK   900      32.333 -53.231 -59.012  1.00  0.00     0.005 C 
ENDBRANCH  13  14
ENDBRANCH   4  13
TORSDOF 5
ENDMDL
MODEL 8
REMARK VINA RESULT:      -4.9     34.941     36.209
REMARK  5 active torsions:
REMARK  status: ('A' for Active; 'I' for Inactive)
REMARK    1  A    between atoms: O2_2  and  C2_5 
REMARK    2  A    between atoms: O3_3  and  C4_7 
REMARK    3  A    between atoms: C1_4  and  C5_8 
REMARK    4  A    between atoms: C3_6  and  C6_9 
REMARK    5  A    between atoms: C6_9  and  C8_11 
ROOT
HETATM    1  O1  UNK   900       7.654 -66.212 -49.673  1.00  0.00    -0.353 OA
HETATM    2  C1  UNK   900       7.022 -67.703 -51.427  1.00  0.00     0.053 C 
HETATM    3  C2  UNK   900       8.543 -67.703 -51.271  1.00  0.00     0.109 C 
HETATM    4  C3  UNK   900       6.574 -67.063 -50.109  1.00  0.00     0.132 C 
HETATM    5  C4  UNK   900       8.749 -66.345 -50.595  1.00  0.00     0.291 C 
HETATM    6  C7  UNK   900       9.086 -68.843 -50.403  1.00  0.00     0.051 C 
ENDROOT
BRANCH   3   7
HETATM    7  O2  UNK   900       9.180 -67.765 -52.539  1.00  0.00    -0.385 OA
HETATM    8  H13 UNK   900      10.078 -67.405 -52.437  1.00  0.00     0.210 HD
ENDBRANCH   3   7
BRANCH   2   9
HETATM    9  C5  UNK   900       6.372 -69.051 -51.704  1.00  0.00     0.006 C 
HETATM   10  C9  UNK   900       5.664 -69.064 -53.047  1.00  0.00     0.006 C 
ENDBRANCH   2   9
BRANCH   5  11
HETATM   11  O3  UNK   900       8.698 -65.298 -51.561  1.00  0.00    -0.368 OA
HETATM   12  H17 UNK   900       7.766 -65.198 -51.823  1.00  0.00     0.212 HD
ENDBRANCH   5  11
BRANCH   4  13
HETATM   13  C6  UNK   900       5.308 -66.234 -50.242  1.00  0.00     0.032 C 
BRANCH  13  14
HETATM   14  C8  UNK   900       5.210 -65.577 -51.618  1.00  0.00    -0.002 C 
HETATM   15  C10 UNK   900       3.773 -65.533 -52.115  1.00  0.00     0.005 C 
ENDBRANCH  13  14
ENDBRANCH   4  13
TORSDOF 5
ENDMDL
MODEL 9
REMARK VINA RESULT:      -4.8     16.874     18.528
REMARK  5 active torsions:
REMARK  status: ('A' for Active; 'I' for Inactive)
REMARK    1  A    between atoms: O2_2  and  C2_5 
REMARK    2  A    between atoms: O3_3  and  C4_7 
REMARK    3  A    between atoms: C1_4  and  C5_8 
REMARK    4  A    between atoms: C3_6  and  C6_9 
REMARK    5  A    between atoms: C6_9  and  C8_11 
ROOT
HETATM    1  O1  UNK   900      24.330 -20.833 -73.737  1.00  0.00    -0.353 OA
HETATM    2  C1  UNK   900      23.790 -22.956 -74.685  1.00  0.00     0.053 C 
HETATM    3  C2  UNK   900      22.643 -21.975 -74.927  1.00  0.00     0.109 C 
HETATM    4  C3  UNK   900      24.935 -22.010 -74.311  1.00  0.00     0.132 C 
HETATM    5  C4  UNK   900      22.900 -20.969 -73.801  1.00  0.00     0.291 C 
HETATM    6  C7  UNK   900      22.677 -21.292 -76.299  1.00  0.00     0.051 C 
ENDROOT
BRANCH   3   7
HETATM    7  O2  UNK   900      21.386 -22.621 -74.782  1.00  0.00    -0.385 OA
HETATM    8  H13 UNK   900      20.760 -22.191 -75.389  1.00  0.00     0.210 HD
ENDBRANCH   3   7
BRANCH   2   9
HETATM    9  C5  UNK   900      24.126 -23.897 -75.834  1.00  0.00     0.006 C 
HETATM   10  C9  UNK   900      23.123 -25.033 -75.936  1.00  0.00     0.006 C 
ENDBRANCH   2   9
BRANCH   5  11
HETATM   11  O3  UNK   900      22.406 -21.475 -72.563  1.00  0.00    -0.368 OA
HETATM   12  H17 UNK   900      23.180 -21.699 -72.018  1.00  0.00     0.212 HD
ENDBRANCH   5  11
BRANCH   4  13
HETATM   13  C6  UNK   900      25.908 -22.610 -73.309  1.00  0.00     0.032 C 
BRANCH  13  14
HETATM   14  C8  UNK   900      27.358 -22.409 -73.747  1.00  0.00    -0.002 C 
HETATM   15  C10 UNK   900      27.890 -21.052 -73.312  1.00  0.00     0.005 C 
ENDBRANCH  13  14
ENDBRANCH   4  13
TORSDOF 5
ENDMDL
