MODEL 1
REMARK VINA RESULT:      -6.5      0.000      0.000
REMARK  11 active torsions:
REMARK  status: ('A' for Active; 'I' for Inactive)
REMARK    1  A    between atoms: O2_2  and  C5_13 
REMARK    2  A    between atoms: O2_2  and  C7_15 
REMARK    3  A    between atoms: O3_3  and  C1_9 
REMARK    4  A    between atoms: O4_4  and  C2_10 
REMARK    5  A    between atoms: O5_5  and  C3_11 
REMARK    6  A    between atoms: O6_6  and  C6_14 
REMARK    7  A    between atoms: O7_7  and  C9_17 
REMARK    8  A    between atoms: O8_8  and  C12_20 
REMARK    9  A    between atoms: C4_12  and  C6_14 
REMARK   10  A    between atoms: C8_16  and  C13_21 
REMARK   11  A    between atoms: C10_18  and  C14_22 
ROOT
HETATM    1  C7  UNK   900       9.536 -31.518 -72.809  1.00  0.00     0.117 A 
HETATM    2  C8  UNK   900      10.460 -31.324 -71.781  1.00  0.00     0.013 A 
HETATM    3  C9  UNK   900       9.612 -30.746 -73.969  1.00  0.00     0.116 A 
HETATM    4  C10 UNK   900      10.610 -29.781 -74.101  1.00  0.00     0.044 A 
HETATM    5  C11 UNK   900      11.458 -30.360 -71.914  1.00  0.00     0.053 A 
HETATM    6  C12 UNK   900      11.533 -29.588 -73.073  1.00  0.00     0.083 A 
ENDROOT
BRANCH   1   7
HETATM    7  O2  UNK   900       8.552 -32.461 -72.693  1.00  0.00    -0.314 OA
BRANCH   7   8
HETATM    8  C5  UNK   900       8.764 -33.694 -73.379  1.00  0.00     0.298 C 
HETATM    9  O1  UNK   900       8.110 -33.659 -74.646  1.00  0.00    -0.348 OA
HETATM   10  C4  UNK   900       8.305 -34.858 -75.396  1.00  0.00     0.179 C 
HETATM   11  C2  UNK   900       7.681 -36.045 -74.657  1.00  0.00     0.180 C 
HETATM   12  C1  UNK   900       8.248 -36.161 -73.243  1.00  0.00     0.183 C 
HETATM   13  C3  UNK   900       8.197 -34.818 -72.514  1.00  0.00     0.205 C 
BRANCH  10  14
HETATM   14  C6  UNK   900       7.670 -34.651 -76.768  1.00  0.00     0.198 C 
BRANCH  14  15
HETATM   15  O6  UNK   900       8.130 -35.671 -77.637  1.00  0.00    -0.398 OA
HETATM   16  H11 UNK   900       8.737 -36.232 -77.125  1.00  0.00     0.209 HD
ENDBRANCH  14  15
ENDBRANCH  10  14
BRANCH  11  17
HETATM   17  O4  UNK   900       7.955 -37.245 -75.376  1.00  0.00    -0.390 OA
HETATM   18  H9  UNK   900       7.446 -37.221 -76.204  1.00  0.00     0.210 HD
ENDBRANCH  11  17
BRANCH  12  19
HETATM   19  O3  UNK   900       7.465 -37.120 -72.530  1.00  0.00    -0.390 OA
HETATM   20  H8  UNK   900       6.940 -37.622 -73.177  1.00  0.00     0.210 HD
ENDBRANCH  12  19
BRANCH  13  21
HETATM   21  O5  UNK   900       8.974 -34.899 -71.318  1.00  0.00    -0.388 OA
HETATM   22  H10 UNK   900       8.578 -34.301 -70.661  1.00  0.00     0.210 HD
ENDBRANCH  13  21
ENDBRANCH   7   8
ENDBRANCH   1   7
BRANCH   2  23
HETATM   23  C13 UNK   900      10.399 -32.114 -70.569  1.00  0.00    -0.023 A 
HETATM   24  C15 UNK   900       9.315 -31.981 -69.701  1.00  0.00     0.012 A 
HETATM   25  C20 UNK   900       9.258 -32.743 -68.534  1.00  0.00     0.001 A 
HETATM   26  C22 UNK   900      10.285 -33.637 -68.233  1.00  0.00     0.000 A 
HETATM   27  C21 UNK   900      11.369 -33.770 -69.100  1.00  0.00     0.001 A 
HETATM   28  C16 UNK   900      11.427 -33.009 -70.267  1.00  0.00     0.012 A 
ENDBRANCH   2  23
BRANCH   3  29
HETATM   29  O7  UNK   900       8.702 -30.946 -74.966  1.00  0.00    -0.352 OA
HETATM   30  C19 UNK   900       7.454 -30.268 -74.847  1.00  0.00     0.210 C 
ENDBRANCH   3  29
BRANCH   4  31
HETATM   31  C14 UNK   900      10.691 -28.977 -75.307  1.00  0.00    -0.020 A 
HETATM   32  C17 UNK   900      10.026 -27.753 -75.374  1.00  0.00     0.012 A 
HETATM   33  C23 UNK   900      10.102 -26.980 -76.534  1.00  0.00     0.001 A 
HETATM   34  C26 UNK   900      10.843 -27.432 -77.626  1.00  0.00     0.000 A 
HETATM   35  C24 UNK   900      11.507 -28.657 -77.558  1.00  0.00     0.001 A 
HETATM   36  C18 UNK   900      11.431 -29.429 -76.399  1.00  0.00     0.012 A 
ENDBRANCH   4  31
BRANCH   6  37
HETATM   37  O8  UNK   900      12.521 -28.652 -73.174  1.00  0.00    -0.355 OA
HETATM   38  C25 UNK   900      13.811 -29.113 -73.565  1.00  0.00     0.210 C 
ENDBRANCH   6  37
TORSDOF 11
ENDMDL
MODEL 2
REMARK VINA RESULT:      -6.4     14.775     19.136
REMARK  11 active torsions:
REMARK  status: ('A' for Active; 'I' for Inactive)
REMARK    1  A    between atoms: O2_2  and  C5_13 
REMARK    2  A    between atoms: O2_2  and  C7_15 
REMARK    3  A    between atoms: O3_3  and  C1_9 
REMARK    4  A    between atoms: O4_4  and  C2_10 
REMARK    5  A    between atoms: O5_5  and  C3_11 
REMARK    6  A    between atoms: O6_6  and  C6_14 
REMARK    7  A    between atoms: O7_7  and  C9_17 
REMARK    8  A    between atoms: O8_8  and  C12_20 
REMARK    9  A    between atoms: C4_12  and  C6_14 
REMARK   10  A    between atoms: C8_16  and  C13_21 
REMARK   11  A    between atoms: C10_18  and  C14_22 
ROOT
HETATM    1  C7  UNK   900       6.712 -50.866 -74.944  1.00  0.00     0.117 A 
HETATM    2  C8  UNK   900       8.064 -51.202 -74.866  1.00  0.00     0.013 A 
HETATM    3  C9  UNK   900       6.022 -51.029 -76.145  1.00  0.00     0.116 A 
HETATM    4  C10 UNK   900       6.683 -51.528 -77.267  1.00  0.00     0.044 A 
HETATM    5  C11 UNK   900       8.724 -51.701 -75.988  1.00  0.00     0.053 A 
HETATM    6  C12 UNK   900       8.034 -51.864 -77.188  1.00  0.00     0.083 A 
ENDROOT
BRANCH   1   7
HETATM    7  O2  UNK   900       6.052 -50.375 -73.850  1.00  0.00    -0.314 OA
BRANCH   7   8
HETATM    8  C5  UNK   900       5.723 -48.987 -73.872  1.00  0.00     0.298 C 
HETATM    9  O1  UNK   900       6.610 -48.295 -74.748  1.00  0.00    -0.348 OA
HETATM   10  C4  UNK   900       6.318 -46.900 -74.835  1.00  0.00     0.179 C 
HETATM   11  C2  UNK   900       6.512 -46.240 -73.467  1.00  0.00     0.180 C 
HETATM   12  C1  UNK   900       5.660 -46.934 -72.405  1.00  0.00     0.183 C 
HETATM   13  C3  UNK   900       5.850 -48.451 -72.447  1.00  0.00     0.205 C 
BRANCH  10  14
HETATM   14  C6  UNK   900       7.245 -46.300 -75.887  1.00  0.00     0.198 C 
BRANCH  14  15
HETATM   15  O6  UNK   900       6.538 -45.293 -76.589  1.00  0.00    -0.398 OA
HETATM   16  H11 UNK   900       6.662 -44.461 -76.101  1.00  0.00     0.209 HD
ENDBRANCH  14  15
ENDBRANCH  10  14
BRANCH  11  17
HETATM   17  O4  UNK   900       6.137 -44.867 -73.549  1.00  0.00    -0.390 OA
HETATM   18  H9  UNK   900       5.517 -44.682 -72.824  1.00  0.00     0.210 HD
ENDBRANCH  11  17
BRANCH  12  19
HETATM   19  O3  UNK   900       6.061 -46.440 -71.125  1.00  0.00    -0.390 OA
HETATM   20  H8  UNK   900       6.996 -46.176 -71.182  1.00  0.00     0.210 HD
ENDBRANCH  12  19
BRANCH  13  21
HETATM   21  O5  UNK   900       4.850 -49.076 -71.642  1.00  0.00    -0.388 OA
HETATM   22  H10 UNK   900       5.272 -49.381 -70.820  1.00  0.00     0.210 HD
ENDBRANCH  13  21
ENDBRANCH   7   8
ENDBRANCH   1   7
BRANCH   2  23
HETATM   23  C13 UNK   900       8.800 -51.040 -73.628  1.00  0.00    -0.023 A 
HETATM   24  C15 UNK   900       8.863 -52.088 -72.710  1.00  0.00     0.012 A 
HETATM   25  C20 UNK   900       9.571 -51.931 -71.519  1.00  0.00     0.001 A 
HETATM   26  C22 UNK   900      10.218 -50.725 -71.245  1.00  0.00     0.000 A 
HETATM   27  C21 UNK   900      10.155 -49.677 -72.163  1.00  0.00     0.001 A 
HETATM   28  C16 UNK   900       9.447 -49.834 -73.354  1.00  0.00     0.012 A 
ENDBRANCH   2  23
BRANCH   3  29
HETATM   29  O7  UNK   900       4.699 -50.697 -76.207  1.00  0.00    -0.352 OA
HETATM   30  C19 UNK   900       3.767 -51.669 -75.741  1.00  0.00     0.210 C 
ENDBRANCH   3  29
BRANCH   4  31
HETATM   31  C14 UNK   900       5.965 -51.699 -78.518  1.00  0.00    -0.020 A 
HETATM   32  C17 UNK   900       5.858 -50.634 -79.411  1.00  0.00     0.012 A 
HETATM   33  C23 UNK   900       5.168 -50.797 -80.613  1.00  0.00     0.001 A 
HETATM   34  C26 UNK   900       4.586 -52.027 -80.921  1.00  0.00     0.000 A 
HETATM   35  C24 UNK   900       4.693 -53.092 -80.027  1.00  0.00     0.001 A 
HETATM   36  C18 UNK   900       5.383 -52.929 -78.826  1.00  0.00     0.012 A 
ENDBRANCH   4  31
BRANCH   6  37
HETATM   37  O8  UNK   900       8.707 -52.355 -78.269  1.00  0.00    -0.355 OA
HETATM   38  C25 UNK   900       9.446 -53.558 -78.079  1.00  0.00     0.210 C 
ENDBRANCH   6  37
TORSDOF 11
ENDMDL
MODEL 3
REMARK VINA RESULT:      -6.4     43.781     46.648
REMARK  11 active torsions:
REMARK  status: ('A' for Active; 'I' for Inactive)
REMARK    1  A    between atoms: O2_2  and  C5_13 
REMARK    2  A    between atoms: O2_2  and  C7_15 
REMARK    3  A    between atoms: O3_3  and  C1_9 
REMARK    4  A    between atoms: O4_4  and  C2_10 
REMARK    5  A    between atoms: O5_5  and  C3_11 
REMARK    6  A    between atoms: O6_6  and  C6_14 
REMARK    7  A    between atoms: O7_7  and  C9_17 
REMARK    8  A    between atoms: O8_8  and  C12_20 
REMARK    9  A    between atoms: C4_12  and  C6_14 
REMARK   10  A    between atoms: C8_16  and  C13_21 
REMARK   11  A    between atoms: C10_18  and  C14_22 
ROOT
HETATM    1  C7  UNK   900      20.518 -71.925 -53.414  1.00  0.00     0.117 A 
HETATM    2  C8  UNK   900      20.758 -72.235 -52.074  1.00  0.00     0.013 A 
HETATM    3  C9  UNK   900      19.614 -72.687 -54.154  1.00  0.00     0.116 A 
HETATM    4  C10 UNK   900      18.952 -73.759 -53.556  1.00  0.00     0.044 A 
HETATM    5  C11 UNK   900      20.096 -73.306 -51.477  1.00  0.00     0.053 A 
HETATM    6  C12 UNK   900      19.192 -74.068 -52.217  1.00  0.00     0.083 A 
ENDROOT
BRANCH   1   7
HETATM    7  O2  UNK   900      21.161 -70.876 -54.012  1.00  0.00    -0.314 OA
BRANCH   7   8
HETATM    8  C5  UNK   900      22.262 -71.202 -54.859  1.00  0.00     0.298 C 
HETATM    9  O1  UNK   900      23.486 -71.019 -54.151  1.00  0.00    -0.348 OA
HETATM   10  C4  UNK   900      24.630 -71.354 -54.939  1.00  0.00     0.179 C 
HETATM   11  C2  UNK   900      24.724 -70.419 -56.147  1.00  0.00     0.180 C 
HETATM   12  C1  UNK   900      23.436 -70.463 -56.968  1.00  0.00     0.183 C 
HETATM   13  C3  UNK   900      22.206 -70.283 -56.078  1.00  0.00     0.205 C 
BRANCH  10  14
HETATM   14  C6  UNK   900      25.857 -71.239 -54.039  1.00  0.00     0.198 C 
BRANCH  14  15
HETATM   15  O6  UNK   900      25.860 -69.954 -53.444  1.00  0.00    -0.398 OA
HETATM   16  H11 UNK   900      24.933 -69.701 -53.299  1.00  0.00     0.209 HD
ENDBRANCH  14  15
ENDBRANCH  10  14
BRANCH  11  17
HETATM   17  O4  UNK   900      25.820 -70.816 -56.966  1.00  0.00    -0.390 OA
HETATM   18  H9  UNK   900      25.621 -71.696 -57.328  1.00  0.00     0.210 HD
ENDBRANCH  11  17
BRANCH  12  19
HETATM   19  O3  UNK   900      23.488 -69.405 -57.928  1.00  0.00    -0.390 OA
HETATM   20  H8  UNK   900      24.143 -68.754 -57.625  1.00  0.00     0.210 HD
ENDBRANCH  12  19
BRANCH  13  21
HETATM   21  O5  UNK   900      21.031 -70.600 -56.825  1.00  0.00    -0.388 OA
HETATM   22  H10 UNK   900      20.712 -69.784 -57.248  1.00  0.00     0.210 HD
ENDBRANCH  13  21
ENDBRANCH   7   8
ENDBRANCH   1   7
BRANCH   2  23
HETATM   23  C13 UNK   900      21.693 -71.456 -51.287  1.00  0.00    -0.023 A 
HETATM   24  C15 UNK   900      23.037 -71.826 -51.231  1.00  0.00     0.012 A 
HETATM   25  C20 UNK   900      23.936 -71.076 -50.473  1.00  0.00     0.001 A 
HETATM   26  C22 UNK   900      23.491 -69.956 -49.770  1.00  0.00     0.000 A 
HETATM   27  C21 UNK   900      22.148 -69.586 -49.826  1.00  0.00     0.001 A 
HETATM   28  C16 UNK   900      21.249 -70.336 -50.584  1.00  0.00     0.012 A 
ENDBRANCH   2  23
BRANCH   3  29
HETATM   29  O7  UNK   900      19.388 -72.372 -55.462  1.00  0.00    -0.352 OA
HETATM   30  C19 UNK   900      19.911 -73.267 -56.441  1.00  0.00     0.210 C 
ENDBRANCH   3  29
BRANCH   4  31
HETATM   31  C14 UNK   900      18.010 -74.553 -54.325  1.00  0.00    -0.020 A 
HETATM   32  C17 UNK   900      16.713 -74.085 -54.535  1.00  0.00     0.012 A 
HETATM   33  C23 UNK   900      15.807 -74.848 -55.273  1.00  0.00     0.001 A 
HETATM   34  C26 UNK   900      16.199 -76.079 -55.800  1.00  0.00     0.000 A 
HETATM   35  C24 UNK   900      17.496 -76.547 -55.588  1.00  0.00     0.001 A 
HETATM   36  C18 UNK   900      18.402 -75.784 -54.851  1.00  0.00     0.012 A 
ENDBRANCH   4  31
BRANCH   6  37
HETATM   37  O8  UNK   900      18.559 -75.110 -51.605  1.00  0.00    -0.355 OA
HETATM   38  C25 UNK   900      17.598 -74.785 -50.604  1.00  0.00     0.210 C 
ENDBRANCH   6  37
TORSDOF 11
ENDMDL
MODEL 4
REMARK VINA RESULT:      -6.1      2.250      3.616
REMARK  11 active torsions:
REMARK  status: ('A' for Active; 'I' for Inactive)
REMARK    1  A    between atoms: O2_2  and  C5_13 
REMARK    2  A    between atoms: O2_2  and  C7_15 
REMARK    3  A    between atoms: O3_3  and  C1_9 
REMARK    4  A    between atoms: O4_4  and  C2_10 
REMARK    5  A    between atoms: O5_5  and  C3_11 
REMARK    6  A    between atoms: O6_6  and  C6_14 
REMARK    7  A    between atoms: O7_7  and  C9_17 
REMARK    8  A    between atoms: O8_8  and  C12_20 
REMARK    9  A    between atoms: C4_12  and  C6_14 
REMARK   10  A    between atoms: C8_16  and  C13_21 
REMARK   11  A    between atoms: C10_18  and  C14_22 
ROOT
HETATM    1  C7  UNK   900       8.230 -31.040 -74.469  1.00  0.00     0.117 A 
HETATM    2  C8  UNK   900       9.379 -30.282 -74.240  1.00  0.00     0.013 A 
HETATM    3  C9  UNK   900       7.320 -30.647 -75.451  1.00  0.00     0.116 A 
HETATM    4  C10 UNK   900       7.559 -29.497 -76.203  1.00  0.00     0.044 A 
HETATM    5  C11 UNK   900       9.618 -29.133 -74.993  1.00  0.00     0.053 A 
HETATM    6  C12 UNK   900       8.708 -28.740 -75.974  1.00  0.00     0.083 A 
ENDROOT
BRANCH   1   7
HETATM    7  O2  UNK   900       7.984 -32.170 -73.737  1.00  0.00    -0.314 OA
BRANCH   7   8
HETATM    8  C5  UNK   900       8.520 -33.390 -74.247  1.00  0.00     0.298 C 
HETATM    9  O1  UNK   900       7.687 -33.883 -75.294  1.00  0.00    -0.348 OA
HETATM   10  C4  UNK   900       8.184 -35.094 -75.866  1.00  0.00     0.179 C 
HETATM   11  C2  UNK   900       8.198 -36.202 -74.810  1.00  0.00     0.180 C 
HETATM   12  C1  UNK   900       9.009 -35.777 -73.588  1.00  0.00     0.183 C 
HETATM   13  C3  UNK   900       8.585 -34.392 -73.096  1.00  0.00     0.205 C 
BRANCH  10  14
HETATM   14  C6  UNK   900       7.283 -35.448 -77.045  1.00  0.00     0.198 C 
BRANCH  14  15
HETATM   15  O6  UNK   900       8.055 -36.145 -78.008  1.00  0.00    -0.398 OA
HETATM   16  H11 UNK   900       7.562 -36.948 -78.245  1.00  0.00     0.209 HD
ENDBRANCH  14  15
ENDBRANCH  10  14
BRANCH  11  17
HETATM   17  O4  UNK   900       8.772 -37.380 -75.372  1.00  0.00    -0.390 OA
HETATM   18  H9  UNK   900       8.973 -37.992 -74.643  1.00  0.00     0.210 HD
ENDBRANCH  11  17
BRANCH  12  19
HETATM   19  O3  UNK   900       8.787 -36.737 -72.554  1.00  0.00    -0.390 OA
HETATM   20  H8  UNK   900       9.649 -36.971 -72.168  1.00  0.00     0.210 HD
ENDBRANCH  12  19
BRANCH  13  21
HETATM   21  O5  UNK   900       9.535 -33.917 -72.141  1.00  0.00    -0.388 OA
HETATM   22  H10 UNK   900       9.228 -33.053 -71.816  1.00  0.00     0.210 HD
ENDBRANCH  13  21
ENDBRANCH   7   8
ENDBRANCH   1   7
BRANCH   2  23
HETATM   23  C13 UNK   900      10.337 -30.671 -73.225  1.00  0.00    -0.023 A 
HETATM   24  C15 UNK   900      11.542 -31.270 -73.594  1.00  0.00     0.012 A 
HETATM   25  C20 UNK   900      12.463 -31.645 -72.617  1.00  0.00     0.001 A 
HETATM   26  C22 UNK   900      12.180 -31.423 -71.269  1.00  0.00     0.000 A 
HETATM   27  C21 UNK   900      10.976 -30.824 -70.900  1.00  0.00     0.001 A 
HETATM   28  C16 UNK   900      10.054 -30.449 -71.877  1.00  0.00     0.012 A 
ENDBRANCH   2  23
BRANCH   3  29
HETATM   29  O7  UNK   900       6.200 -31.398 -75.664  1.00  0.00    -0.352 OA
HETATM   30  C19 UNK   900       5.101 -31.181 -74.783  1.00  0.00     0.210 C 
ENDBRANCH   3  29
BRANCH   4  31
HETATM   31  C14 UNK   900       6.613 -29.087 -77.226  1.00  0.00    -0.020 A 
HETATM   32  C17 UNK   900       6.719 -29.601 -78.518  1.00  0.00     0.012 A 
HETATM   33  C23 UNK   900       5.811 -29.207 -79.502  1.00  0.00     0.001 A 
HETATM   34  C26 UNK   900       4.799 -28.299 -79.193  1.00  0.00     0.000 A 
HETATM   35  C24 UNK   900       4.694 -27.784 -77.901  1.00  0.00     0.001 A 
HETATM   36  C18 UNK   900       5.601 -28.179 -76.917  1.00  0.00     0.012 A 
ENDBRANCH   4  31
BRANCH   6  37
HETATM   37  O8  UNK   900       8.969 -27.611 -76.695  1.00  0.00    -0.355 OA
HETATM   38  C25 UNK   900      10.204 -27.568 -77.405  1.00  0.00     0.210 C 
ENDBRANCH   6  37
TORSDOF 11
ENDMDL
MODEL 5
REMARK VINA RESULT:      -6.0     46.770     48.465
REMARK  11 active torsions:
REMARK  status: ('A' for Active; 'I' for Inactive)
REMARK    1  A    between atoms: O2_2  and  C5_13 
REMARK    2  A    between atoms: O2_2  and  C7_15 
REMARK    3  A    between atoms: O3_3  and  C1_9 
REMARK    4  A    between atoms: O4_4  and  C2_10 
REMARK    5  A    between atoms: O5_5  and  C3_11 
REMARK    6  A    between atoms: O6_6  and  C6_14 
REMARK    7  A    between atoms: O7_7  and  C9_17 
REMARK    8  A    between atoms: O8_8  and  C12_20 
REMARK    9  A    between atoms: C4_12  and  C6_14 
REMARK   10  A    between atoms: C8_16  and  C13_21 
REMARK   11  A    between atoms: C10_18  and  C14_22 
ROOT
HETATM    1  C7  UNK   900      24.603 -58.947 -37.484  1.00  0.00     0.117 A 
HETATM    2  C8  UNK   900      24.441 -60.220 -38.033  1.00  0.00     0.013 A 
HETATM    3  C9  UNK   900      25.862 -58.346 -37.479  1.00  0.00     0.116 A 
HETATM    4  C10 UNK   900      26.957 -59.016 -38.023  1.00  0.00     0.044 A 
HETATM    5  C11 UNK   900      25.536 -60.889 -38.576  1.00  0.00     0.053 A 
HETATM    6  C12 UNK   900      26.794 -60.288 -38.572  1.00  0.00     0.083 A 
ENDROOT
BRANCH   1   7
HETATM    7  O2  UNK   900      23.537 -58.278 -36.947  1.00  0.00    -0.314 OA
BRANCH   7   8
HETATM    8  C5  UNK   900      23.391 -58.342 -35.529  1.00  0.00     0.298 C 
HETATM    9  O1  UNK   900      22.572 -59.456 -35.178  1.00  0.00    -0.348 OA
HETATM   10  C4  UNK   900      22.407 -59.591 -33.766  1.00  0.00     0.179 C 
HETATM   11  C2  UNK   900      21.678 -58.367 -33.206  1.00  0.00     0.180 C 
HETATM   12  C1  UNK   900      22.418 -57.081 -33.571  1.00  0.00     0.183 C 
HETATM   13  C3  UNK   900      22.749 -57.037 -35.063  1.00  0.00     0.205 C 
BRANCH  10  14
HETATM   14  C6  UNK   900      21.625 -60.877 -33.516  1.00  0.00     0.198 C 
BRANCH  14  15
HETATM   15  O6  UNK   900      20.248 -60.557 -33.423  1.00  0.00    -0.398 OA
HETATM   16  H11 UNK   900      19.798 -61.007 -34.158  1.00  0.00     0.209 HD
ENDBRANCH  14  15
ENDBRANCH  10  14
BRANCH  11  17
HETATM   17  O4  UNK   900      21.593 -58.477 -31.787  1.00  0.00    -0.390 OA
HETATM   18  H9  UNK   900      22.247 -59.137 -31.498  1.00  0.00     0.210 HD
ENDBRANCH  11  17
BRANCH  12  19
HETATM   19  O3  UNK   900      21.576 -55.976 -33.237  1.00  0.00    -0.390 OA
HETATM   20  H8  UNK   900      21.871 -55.205 -33.751  1.00  0.00     0.210 HD
ENDBRANCH  12  19
BRANCH  13  21
HETATM   21  O5  UNK   900      23.666 -55.972 -35.313  1.00  0.00    -0.388 OA
HETATM   22  H10 UNK   900      24.435 -56.340 -35.783  1.00  0.00     0.210 HD
ENDBRANCH  13  21
ENDBRANCH   7   8
ENDBRANCH   1   7
BRANCH   2  23
HETATM   23  C13 UNK   900      23.142 -60.863 -38.048  1.00  0.00    -0.023 A 
HETATM   24  C15 UNK   900      22.159 -60.431 -38.938  1.00  0.00     0.012 A 
HETATM   25  C20 UNK   900      20.910 -61.051 -38.952  1.00  0.00     0.001 A 
HETATM   26  C22 UNK   900      20.642 -62.101 -38.074  1.00  0.00     0.000 A 
HETATM   27  C21 UNK   900      21.625 -62.533 -37.184  1.00  0.00     0.001 A 
HETATM   28  C16 UNK   900      22.874 -61.913 -37.170  1.00  0.00     0.012 A 
ENDBRANCH   2  23
BRANCH   3  29
HETATM   29  O7  UNK   900      26.006 -57.100 -36.939  1.00  0.00    -0.352 OA
HETATM   30  C19 UNK   900      26.599 -57.023 -35.645  1.00  0.00     0.210 C 
ENDBRANCH   3  29
BRANCH   4  31
HETATM   31  C14 UNK   900      28.268 -58.391 -38.019  1.00  0.00    -0.020 A 
HETATM   32  C17 UNK   900      28.592 -57.448 -38.993  1.00  0.00     0.012 A 
HETATM   33  C23 UNK   900      29.852 -56.847 -38.991  1.00  0.00     0.001 A 
HETATM   34  C26 UNK   900      30.787 -57.192 -38.015  1.00  0.00     0.000 A 
HETATM   35  C24 UNK   900      30.463 -58.137 -37.042  1.00  0.00     0.001 A 
HETATM   36  C18 UNK   900      29.203 -58.736 -37.043  1.00  0.00     0.012 A 
ENDBRANCH   4  31
BRANCH   6  37
HETATM   37  O8  UNK   900      27.847 -60.968 -39.111  1.00  0.00    -0.355 OA
HETATM   38  C25 UNK   900      28.011 -62.326 -38.713  1.00  0.00     0.210 C 
ENDBRANCH   6  37
TORSDOF 11
ENDMDL
MODEL 6
REMARK VINA RESULT:      -5.8     27.643     30.350
REMARK  11 active torsions:
REMARK  status: ('A' for Active; 'I' for Inactive)
REMARK    1  A    between atoms: O2_2  and  C5_13 
REMARK    2  A    between atoms: O2_2  and  C7_15 
REMARK    3  A    between atoms: O3_3  and  C1_9 
REMARK    4  A    between atoms: O4_4  and  C2_10 
REMARK    5  A    between atoms: O5_5  and  C3_11 
REMARK    6  A    between atoms: O6_6  and  C6_14 
REMARK    7  A    between atoms: O7_7  and  C9_17 
REMARK    8  A    between atoms: O8_8  and  C12_20 
REMARK    9  A    between atoms: C4_12  and  C6_14 
REMARK   10  A    between atoms: C8_16  and  C13_21 
REMARK   11  A    between atoms: C10_18  and  C14_22 
ROOT
HETATM    1  C7  UNK   900      26.787 -41.333 -94.625  1.00  0.00     0.117 A 
HETATM    2  C8  UNK   900      26.039 -40.823 -95.687  1.00  0.00     0.013 A 
HETATM    3  C9  UNK   900      26.824 -42.710 -94.398  1.00  0.00     0.116 A 
HETATM    4  C10 UNK   900      26.114 -43.574 -95.230  1.00  0.00     0.044 A 
HETATM    5  C11 UNK   900      25.329 -41.688 -96.519  1.00  0.00     0.053 A 
HETATM    6  C12 UNK   900      25.366 -43.063 -96.291  1.00  0.00     0.083 A 
ENDROOT
BRANCH   1   7
HETATM    7  O2  UNK   900      27.488 -40.496 -93.802  1.00  0.00    -0.314 OA
BRANCH   7   8
HETATM    8  C5  UNK   900      28.724 -39.992 -94.306  1.00  0.00     0.298 C 
HETATM    9  O1  UNK   900      29.700 -41.031 -94.319  1.00  0.00    -0.348 OA
HETATM   10  C4  UNK   900      30.958 -40.596 -94.838  1.00  0.00     0.179 C 
HETATM   11  C2  UNK   900      31.546 -39.507 -93.938  1.00  0.00     0.180 C 
HETATM   12  C1  UNK   900      30.565 -38.347 -93.779  1.00  0.00     0.183 C 
HETATM   13  C3  UNK   900      29.172 -38.848 -93.397  1.00  0.00     0.205 C 
BRANCH  10  14
HETATM   14  C6  UNK   900      31.869 -41.817 -94.918  1.00  0.00     0.198 C 
BRANCH  14  15
HETATM   15  O6  UNK   900      32.535 -41.964 -93.676  1.00  0.00    -0.398 OA
HETATM   16  H11 UNK   900      33.316 -41.386 -93.697  1.00  0.00     0.209 HD
ENDBRANCH  14  15
ENDBRANCH  10  14
BRANCH  11  17
HETATM   17  O4  UNK   900      32.758 -39.025 -94.512  1.00  0.00    -0.390 OA
HETATM   18  H9  UNK   900      33.466 -39.136 -93.854  1.00  0.00     0.210 HD
ENDBRANCH  11  17
BRANCH  12  19
HETATM   19  O3  UNK   900      31.060 -37.488 -92.749  1.00  0.00    -0.390 OA
HETATM   20  H8  UNK   900      30.886 -37.912 -91.892  1.00  0.00     0.210 HD
ENDBRANCH  12  19
BRANCH  13  21
HETATM   21  O5  UNK   900      28.233 -37.780 -93.526  1.00  0.00    -0.388 OA
HETATM   22  H10 UNK   900      27.422 -38.032 -93.050  1.00  0.00     0.210 HD
ENDBRANCH  13  21
ENDBRANCH   7   8
ENDBRANCH   1   7
BRANCH   2  23
HETATM   23  C13 UNK   900      25.986 -39.398 -95.942  1.00  0.00    -0.023 A 
HETATM   24  C15 UNK   900      26.725 -38.847 -96.989  1.00  0.00     0.012 A 
HETATM   25  C20 UNK   900      26.673 -37.475 -97.233  1.00  0.00     0.001 A 
HETATM   26  C22 UNK   900      25.883 -36.652 -96.430  1.00  0.00     0.000 A 
HETATM   27  C21 UNK   900      25.144 -37.203 -95.383  1.00  0.00     0.001 A 
HETATM   28  C16 UNK   900      25.196 -38.574 -95.138  1.00  0.00     0.012 A 
ENDBRANCH   2  23
BRANCH   3  29
HETATM   29  O7  UNK   900      27.561 -43.195 -93.356  1.00  0.00    -0.352 OA
HETATM   30  C19 UNK   900      26.914 -43.269 -92.088  1.00  0.00     0.210 C 
ENDBRANCH   3  29
BRANCH   4  31
HETATM   31  C14 UNK   900      26.152 -45.006 -94.994  1.00  0.00    -0.020 A 
HETATM   32  C17 UNK   900      25.217 -45.598 -94.146  1.00  0.00     0.012 A 
HETATM   33  C23 UNK   900      25.253 -46.975 -93.919  1.00  0.00     0.001 A 
HETATM   34  C26 UNK   900      26.226 -47.758 -94.539  1.00  0.00     0.000 A 
HETATM   35  C24 UNK   900      27.162 -47.165 -95.387  1.00  0.00     0.001 A 
HETATM   36  C18 UNK   900      27.125 -45.790 -95.615  1.00  0.00     0.012 A 
ENDBRANCH   4  31
BRANCH   6  37
HETATM   37  O8  UNK   900      24.662 -43.884 -97.122  1.00  0.00    -0.355 OA
HETATM   38  C25 UNK   900      23.764 -43.262 -98.037  1.00  0.00     0.210 C 
ENDBRANCH   6  37
TORSDOF 11
ENDMDL
MODEL 7
REMARK VINA RESULT:      -5.8     44.336     46.341
REMARK  11 active torsions:
REMARK  status: ('A' for Active; 'I' for Inactive)
REMARK    1  A    between atoms: O2_2  and  C5_13 
REMARK    2  A    between atoms: O2_2  and  C7_15 
REMARK    3  A    between atoms: O3_3  and  C1_9 
REMARK    4  A    between atoms: O4_4  and  C2_10 
REMARK    5  A    between atoms: O5_5  and  C3_11 
REMARK    6  A    between atoms: O6_6  and  C6_14 
REMARK    7  A    between atoms: O7_7  and  C9_17 
REMARK    8  A    between atoms: O8_8  and  C12_20 
REMARK    9  A    between atoms: C4_12  and  C6_14 
REMARK   10  A    between atoms: C8_16  and  C13_21 
REMARK   11  A    between atoms: C10_18  and  C14_22 
ROOT
HETATM    1  C7  UNK   900      20.913 -72.013 -56.025  1.00  0.00     0.117 A 
HETATM    2  C8  UNK   900      20.809 -72.986 -57.020  1.00  0.00     0.013 A 
HETATM    3  C9  UNK   900      20.018 -72.012 -54.955  1.00  0.00     0.116 A 
HETATM    4  C10 UNK   900      19.021 -72.984 -54.879  1.00  0.00     0.044 A 
HETATM    5  C11 UNK   900      19.812 -73.957 -56.943  1.00  0.00     0.053 A 
HETATM    6  C12 UNK   900      18.918 -73.957 -55.873  1.00  0.00     0.083 A 
ENDROOT
BRANCH   1   7
HETATM    7  O2  UNK   900      21.887 -71.054 -56.088  1.00  0.00    -0.314 OA
BRANCH   7   8
HETATM    8  C5  UNK   900      23.194 -71.444 -55.669  1.00  0.00     0.298 C 
HETATM    9  O1  UNK   900      23.283 -71.385 -54.248  1.00  0.00    -0.348 OA
HETATM   10  C4  UNK   900      24.563 -71.789 -53.761  1.00  0.00     0.179 C 
HETATM   11  C2  UNK   900      25.641 -70.828 -54.268  1.00  0.00     0.180 C 
HETATM   12  C1  UNK   900      25.615 -70.740 -55.793  1.00  0.00     0.183 C 
HETATM   13  C3  UNK   900      24.199 -70.486 -56.309  1.00  0.00     0.205 C 
BRANCH  10  14
HETATM   14  C6  UNK   900      24.492 -71.805 -52.237  1.00  0.00     0.198 C 
BRANCH  14  15
HETATM   15  O6  UNK   900      25.087 -70.616 -51.746  1.00  0.00    -0.398 OA
HETATM   16  H11 UNK   900      25.744 -70.878 -51.079  1.00  0.00     0.209 HD
ENDBRANCH  14  15
ENDBRANCH  10  14
BRANCH  11  17
HETATM   17  O4  UNK   900      26.922 -71.289 -53.844  1.00  0.00    -0.390 OA
HETATM   18  H9  UNK   900      27.013 -72.217 -54.121  1.00  0.00     0.210 HD
ENDBRANCH  11  17
BRANCH  12  19
HETATM   19  O3  UNK   900      26.466 -69.661 -56.188  1.00  0.00    -0.390 OA
HETATM   20  H8  UNK   900      26.044 -69.201 -56.933  1.00  0.00     0.210 HD
ENDBRANCH  12  19
BRANCH  13  21
HETATM   21  O5  UNK   900      24.167 -70.682 -57.723  1.00  0.00    -0.388 OA
HETATM   22  H10 UNK   900      24.017 -71.628 -57.893  1.00  0.00     0.210 HD
ENDBRANCH  13  21
ENDBRANCH   7   8
ENDBRANCH   1   7
BRANCH   2  23
HETATM   23  C13 UNK   900      21.727 -73.005 -58.141  1.00  0.00    -0.023 A 
HETATM   24  C15 UNK   900      21.512 -72.168 -59.235  1.00  0.00     0.012 A 
HETATM   25  C20 UNK   900      22.396 -72.186 -60.313  1.00  0.00     0.001 A 
HETATM   26  C22 UNK   900      23.497 -73.045 -60.298  1.00  0.00     0.000 A 
HETATM   27  C21 UNK   900      23.712 -73.883 -59.204  1.00  0.00     0.001 A 
HETATM   28  C16 UNK   900      22.827 -73.864 -58.126  1.00  0.00     0.012 A 
ENDBRANCH   2  23
BRANCH   3  29
HETATM   29  O7  UNK   900      20.132 -71.054 -53.989  1.00  0.00    -0.352 OA
HETATM   30  C19 UNK   900      20.781 -71.432 -52.778  1.00  0.00     0.210 C 
ENDBRANCH   3  29
BRANCH   4  31
HETATM   31  C14 UNK   900      18.089 -72.985 -53.765  1.00  0.00    -0.020 A 
HETATM   32  C17 UNK   900      18.329 -73.798 -52.658  1.00  0.00     0.012 A 
HETATM   33  C23 UNK   900      17.434 -73.800 -51.587  1.00  0.00     0.001 A 
HETATM   34  C26 UNK   900      16.299 -72.990 -51.625  1.00  0.00     0.000 A 
HETATM   35  C24 UNK   900      16.060 -72.177 -52.733  1.00  0.00     0.001 A 
HETATM   36  C18 UNK   900      16.955 -72.174 -53.803  1.00  0.00     0.012 A 
ENDBRANCH   4  31
BRANCH   6  37
HETATM   37  O8  UNK   900      17.952 -74.920 -55.825  1.00  0.00    -0.355 OA
HETATM   38  C25 UNK   900      18.391 -76.269 -55.701  1.00  0.00     0.210 C 
ENDBRANCH   6  37
TORSDOF 11
ENDMDL
MODEL 8
REMARK VINA RESULT:      -5.6      3.055      7.334
REMARK  11 active torsions:
REMARK  status: ('A' for Active; 'I' for Inactive)
REMARK    1  A    between atoms: O2_2  and  C5_13 
REMARK    2  A    between atoms: O2_2  and  C7_15 
REMARK    3  A    between atoms: O3_3  and  C1_9 
REMARK    4  A    between atoms: O4_4  and  C2_10 
REMARK    5  A    between atoms: O5_5  and  C3_11 
REMARK    6  A    between atoms: O6_6  and  C6_14 
REMARK    7  A    between atoms: O7_7  and  C9_17 
REMARK    8  A    between atoms: O8_8  and  C12_20 
REMARK    9  A    between atoms: C4_12  and  C6_14 
REMARK   10  A    between atoms: C8_16  and  C13_21 
REMARK   11  A    between atoms: C10_18  and  C14_22 
ROOT
HETATM    1  C7  UNK   900       8.831 -29.639 -75.356  1.00  0.00     0.117 A 
HETATM    2  C8  UNK   900      10.131 -29.405 -75.806  1.00  0.00     0.013 A 
HETATM    3  C9  UNK   900       8.592 -30.622 -74.395  1.00  0.00     0.116 A 
HETATM    4  C10 UNK   900       9.652 -31.371 -73.886  1.00  0.00     0.044 A 
HETATM    5  C11 UNK   900      11.191 -30.154 -75.296  1.00  0.00     0.053 A 
HETATM    6  C12 UNK   900      10.952 -31.137 -74.336  1.00  0.00     0.083 A 
ENDROOT
BRANCH   1   7
HETATM    7  O2  UNK   900       7.782 -28.911 -75.848  1.00  0.00    -0.314 OA
BRANCH   7   8
HETATM    8  C5  UNK   900       7.290 -29.288 -77.133  1.00  0.00     0.298 C 
HETATM    9  O1  UNK   900       7.422 -28.195 -78.040  1.00  0.00    -0.348 OA
HETATM   10  C4  UNK   900       6.969 -28.517 -79.355  1.00  0.00     0.179 C 
HETATM   11  C2  UNK   900       5.472 -28.836 -79.328  1.00  0.00     0.180 C 
HETATM   12  C1  UNK   900       5.174 -29.958 -78.335  1.00  0.00     0.183 C 
HETATM   13  C3  UNK   900       5.823 -29.682 -76.978  1.00  0.00     0.205 C 
BRANCH  10  14
HETATM   14  C6  UNK   900       7.275 -27.322 -80.252  1.00  0.00     0.198 C 
BRANCH  14  15
HETATM   15  O6  UNK   900       6.090 -26.561 -80.410  1.00  0.00    -0.398 OA
HETATM   16  H11 UNK   900       6.286 -25.852 -81.045  1.00  0.00     0.209 HD
ENDBRANCH  14  15
ENDBRANCH  10  14
BRANCH  11  17
HETATM   17  O4  UNK   900       5.052 -29.235 -80.631  1.00  0.00    -0.390 OA
HETATM   18  H9  UNK   900       5.232 -28.501 -81.242  1.00  0.00     0.210 HD
ENDBRANCH  11  17
BRANCH  12  19
HETATM   19  O3  UNK   900       3.757 -30.044 -78.177  1.00  0.00    -0.390 OA
HETATM   20  H8  UNK   900       3.510 -29.533 -77.387  1.00  0.00     0.210 HD
ENDBRANCH  12  19
BRANCH  13  21
HETATM   21  O5  UNK   900       5.758 -30.861 -76.174  1.00  0.00    -0.388 OA
HETATM   22  H10 UNK   900       6.361 -31.521 -76.558  1.00  0.00     0.210 HD
ENDBRANCH  13  21
ENDBRANCH   7   8
ENDBRANCH   1   7
BRANCH   2  23
HETATM   23  C13 UNK   900      10.401 -28.390 -76.803  1.00  0.00    -0.023 A 
HETATM   24  C15 UNK   900      10.819 -28.759 -78.082  1.00  0.00     0.012 A 
HETATM   25  C20 UNK   900      11.079 -27.781 -79.041  1.00  0.00     0.001 A 
HETATM   26  C22 UNK   900      10.923 -26.431 -78.722  1.00  0.00     0.000 A 
HETATM   27  C21 UNK   900      10.505 -26.062 -77.443  1.00  0.00     0.001 A 
HETATM   28  C16 UNK   900      10.245 -27.040 -76.484  1.00  0.00     0.012 A 
ENDBRANCH   2  23
BRANCH   3  29
HETATM   29  O7  UNK   900       7.316 -30.839 -73.964  1.00  0.00    -0.352 OA
HETATM   30  C19 UNK   900       6.822 -29.972 -72.946  1.00  0.00     0.210 C 
ENDBRANCH   3  29
BRANCH   4  31
HETATM   31  C14 UNK   900       9.406 -32.395 -72.885  1.00  0.00    -0.020 A 
HETATM   32  C17 UNK   900       9.093 -33.694 -73.281  1.00  0.00     0.012 A 
HETATM   33  C23 UNK   900       8.855 -34.678 -72.320  1.00  0.00     0.001 A 
HETATM   34  C26 UNK   900       8.929 -34.361 -70.964  1.00  0.00     0.000 A 
HETATM   35  C24 UNK   900       9.243 -33.060 -70.569  1.00  0.00     0.001 A 
HETATM   36  C18 UNK   900       9.481 -32.077 -71.529  1.00  0.00     0.012 A 
ENDBRANCH   4  31
BRANCH   6  37
HETATM   37  O8  UNK   900      12.009 -31.854 -73.855  1.00  0.00    -0.355 OA
HETATM   38  C25 UNK   900      12.844 -31.210 -72.898  1.00  0.00     0.210 C 
ENDBRANCH   6  37
TORSDOF 11
ENDMDL
MODEL 9
REMARK VINA RESULT:      -5.5     39.809     43.240
REMARK  11 active torsions:
REMARK  status: ('A' for Active; 'I' for Inactive)
REMARK    1  A    between atoms: O2_2  and  C5_13 
REMARK    2  A    between atoms: O2_2  and  C7_15 
REMARK    3  A    between atoms: O3_3  and  C1_9 
REMARK    4  A    between atoms: O4_4  and  C2_10 
REMARK    5  A    between atoms: O5_5  and  C3_11 
REMARK    6  A    between atoms: O6_6  and  C6_14 
REMARK    7  A    between atoms: O7_7  and  C9_17 
REMARK    8  A    between atoms: O8_8  and  C12_20 
REMARK    9  A    between atoms: C4_12  and  C6_14 
REMARK   10  A    between atoms: C8_16  and  C13_21 
REMARK   11  A    between atoms: C10_18  and  C14_22 
ROOT
HETATM    1  C7  UNK   900      18.531 -50.236 -35.584  1.00  0.00     0.117 A 
HETATM    2  C8  UNK   900      18.978 -50.407 -34.272  1.00  0.00     0.013 A 
HETATM    3  C9  UNK   900      17.510 -51.046 -36.083  1.00  0.00     0.116 A 
HETATM    4  C10 UNK   900      16.937 -52.026 -35.272  1.00  0.00     0.044 A 
HETATM    5  C11 UNK   900      18.404 -51.386 -33.463  1.00  0.00     0.053 A 
HETATM    6  C12 UNK   900      17.384 -52.195 -33.962  1.00  0.00     0.083 A 
ENDROOT
BRANCH   1   7
HETATM    7  O2  UNK   900      19.085 -49.279 -36.389  1.00  0.00    -0.314 OA
BRANCH   7   8
HETATM    8  C5  UNK   900      18.720 -47.927 -36.118  1.00  0.00     0.298 C 
HETATM    9  O1  UNK   900      17.396 -47.681 -36.586  1.00  0.00    -0.348 OA
HETATM   10  C4  UNK   900      16.959 -46.348 -36.322  1.00  0.00     0.179 C 
HETATM   11  C2  UNK   900      17.841 -45.350 -37.077  1.00  0.00     0.180 C 
HETATM   12  C1  UNK   900      19.313 -45.548 -36.718  1.00  0.00     0.183 C 
HETATM   13  C3  UNK   900      19.718 -47.017 -36.832  1.00  0.00     0.205 C 
BRANCH  10  14
HETATM   14  C6  UNK   900      15.499 -46.248 -36.752  1.00  0.00     0.198 C 
BRANCH  14  15
HETATM   15  O6  UNK   900      14.856 -47.474 -36.450  1.00  0.00    -0.398 OA
HETATM   16  H11 UNK   900      13.916 -47.368 -36.673  1.00  0.00     0.209 HD
ENDBRANCH  14  15
ENDBRANCH  10  14
BRANCH  11  17
HETATM   17  O4  UNK   900      17.447 -44.023 -36.739  1.00  0.00    -0.390 OA
HETATM   18  H9  UNK   900      17.001 -43.636 -37.512  1.00  0.00     0.210 HD
ENDBRANCH  11  17
BRANCH  12  19
HETATM   19  O3  UNK   900      20.097 -44.766 -37.621  1.00  0.00    -0.390 OA
HETATM   20  H8  UNK   900      20.952 -45.212 -37.743  1.00  0.00     0.210 HD
ENDBRANCH  12  19
BRANCH  13  21
HETATM   21  O5  UNK   900      21.002 -47.203 -36.234  1.00  0.00    -0.388 OA
HETATM   22  H10 UNK   900      20.914 -47.045 -35.278  1.00  0.00     0.210 HD
ENDBRANCH  13  21
ENDBRANCH   7   8
ENDBRANCH   1   7
BRANCH   2  23
HETATM   23  C13 UNK   900      20.037 -49.578 -33.734  1.00  0.00    -0.023 A 
HETATM   24  C15 UNK   900      21.370 -49.885 -34.003  1.00  0.00     0.012 A 
HETATM   25  C20 UNK   900      22.389 -49.086 -33.484  1.00  0.00     0.001 A 
HETATM   26  C22 UNK   900      22.075 -47.979 -32.695  1.00  0.00     0.000 A 
HETATM   27  C21 UNK   900      20.741 -47.672 -32.426  1.00  0.00     0.001 A 
HETATM   28  C16 UNK   900      19.723 -48.471 -32.945  1.00  0.00     0.012 A 
ENDBRANCH   2  23
BRANCH   3  29
HETATM   29  O7  UNK   900      17.083 -50.868 -37.367  1.00  0.00    -0.352 OA
HETATM   30  C19 UNK   900      17.759 -51.608 -38.380  1.00  0.00     0.210 C 
ENDBRANCH   3  29
BRANCH   4  31
HETATM   31  C14 UNK   900      15.874 -52.869 -35.790  1.00  0.00    -0.020 A 
HETATM   32  C17 UNK   900      14.553 -52.424 -35.754  1.00  0.00     0.012 A 
HETATM   33  C23 UNK   900      13.531 -53.234 -36.250  1.00  0.00     0.001 A 
HETATM   34  C26 UNK   900      13.831 -54.488 -36.782  1.00  0.00     0.000 A 
HETATM   35  C24 UNK   900      15.153 -54.932 -36.819  1.00  0.00     0.001 A 
HETATM   36  C18 UNK   900      16.175 -54.122 -36.322  1.00  0.00     0.012 A 
ENDBRANCH   4  31
BRANCH   6  37
HETATM   37  O8  UNK   900      16.842 -53.145 -33.145  1.00  0.00    -0.355 OA
HETATM   38  C25 UNK   900      16.170 -52.684 -31.976  1.00  0.00     0.210 C 
ENDBRANCH   6  37
TORSDOF 11
ENDMDL
