MODEL 1
REMARK VINA RESULT:      -6.0      0.000      0.000
REMARK  1 active torsions:
REMARK  status: ('A' for Active; 'I' for Inactive)
REMARK    1  A    between atoms: O2_2  and  C3_6 
ROOT
HETATM    1  O1  UNK   900      22.866 -33.523 -68.633  1.00  0.00    -0.316 OA
HETATM    2  O3  UNK   900      21.767 -32.166 -67.155  1.00  0.00    -0.265 OA
HETATM    3  C1  UNK   900      23.016 -35.483 -67.306  1.00  0.00     0.031 C 
HETATM    4  C2  UNK   900      24.424 -35.642 -66.667  1.00  0.00     0.022 C 
HETATM    5  C3  UNK   900      25.380 -34.826 -67.560  1.00  0.00     0.060 C 
HETATM    6  C4  UNK   900      23.257 -34.901 -68.694  1.00  0.00     0.139 C 
HETATM    7  C5  UNK   900      24.759 -34.996 -68.951  1.00  0.00     0.071 C 
HETATM    8  C6  UNK   900      22.025 -34.521 -66.686  1.00  0.00     0.118 C 
HETATM    9  C7  UNK   900      24.516 -35.347 -65.175  1.00  0.00     0.013 C 
HETATM   10  C8  UNK   900      26.825 -35.312 -67.517  1.00  0.00     0.046 C 
HETATM   11  C9  UNK   900      22.199 -33.262 -67.474  1.00  0.00     0.259 C 
ENDROOT
BRANCH   5  12
HETATM   12  O2  UNK   900      25.360 -33.442 -67.216  1.00  0.00    -0.390 OA
HETATM   13  H14 UNK   900      25.394 -33.372 -66.247  1.00  0.00     0.210 HD
ENDBRANCH   5  12
TORSDOF 1
ENDMDL
MODEL 2
REMARK VINA RESULT:      -5.9      1.741      3.008
REMARK  1 active torsions:
REMARK  status: ('A' for Active; 'I' for Inactive)
REMARK    1  A    between atoms: O2_2  and  C3_6 
ROOT
HETATM    1  O1  UNK   900      23.137 -33.060 -65.923  1.00  0.00    -0.316 OA
HETATM    2  O3  UNK   900      21.615 -32.254 -67.430  1.00  0.00    -0.265 OA
HETATM    3  C1  UNK   900      24.269 -34.606 -67.321  1.00  0.00     0.031 C 
HETATM    4  C2  UNK   900      23.792 -36.064 -67.076  1.00  0.00     0.022 C 
HETATM    5  C3  UNK   900      23.204 -36.075 -65.650  1.00  0.00     0.060 C 
HETATM    6  C4  UNK   900      24.271 -33.937 -65.951  1.00  0.00     0.139 C 
HETATM    7  C5  UNK   900      24.083 -35.050 -64.924  1.00  0.00     0.071 C 
HETATM    8  C6  UNK   900      23.420 -33.679 -68.166  1.00  0.00     0.118 C 
HETATM    9  C7  UNK   900      22.896 -36.662 -68.153  1.00  0.00     0.013 C 
HETATM   10  C8  UNK   900      23.249 -37.444 -64.979  1.00  0.00     0.046 C 
HETATM   11  C9  UNK   900      22.599 -32.928 -67.168  1.00  0.00     0.259 C 
ENDROOT
BRANCH   5  12
HETATM   12  O2  UNK   900      21.856 -35.612 -65.639  1.00  0.00    -0.390 OA
HETATM   13  H14 UNK   900      21.816 -34.809 -65.092  1.00  0.00     0.210 HD
ENDBRANCH   5  12
TORSDOF 1
ENDMDL
MODEL 3
REMARK VINA RESULT:      -5.8      5.614      6.832
REMARK  1 active torsions:
REMARK  status: ('A' for Active; 'I' for Inactive)
REMARK    1  A    between atoms: O2_2  and  C3_6 
ROOT
HETATM    1  O1  UNK   900      22.881 -38.257 -69.266  1.00  0.00    -0.316 OA
HETATM    2  O3  UNK   900      24.925 -38.321 -70.293  1.00  0.00    -0.265 OA
HETATM    3  C1  UNK   900      23.098 -40.163 -67.872  1.00  0.00     0.031 C 
HETATM    4  C2  UNK   900      22.362 -41.397 -68.462  1.00  0.00     0.022 C 
HETATM    5  C3  UNK   900      21.287 -40.826 -69.409  1.00  0.00     0.060 C 
HETATM    6  C4  UNK   900      22.221 -38.961 -68.206  1.00  0.00     0.139 C 
HETATM    7  C5  UNK   900      20.893 -39.519 -68.711  1.00  0.00     0.071 C 
HETATM    8  C6  UNK   900      24.455 -39.775 -68.422  1.00  0.00     0.118 C 
HETATM    9  C7  UNK   900      23.250 -42.478 -69.064  1.00  0.00     0.013 C 
HETATM   10  C8  UNK   900      20.089 -41.751 -69.606  1.00  0.00     0.046 C 
HETATM   11  C9  UNK   900      24.146 -38.730 -69.446  1.00  0.00     0.259 C 
ENDROOT
BRANCH   5  12
HETATM   12  O2  UNK   900      21.832 -40.516 -70.689  1.00  0.00    -0.390 OA
HETATM   13  H14 UNK   900      22.635 -41.050 -70.813  1.00  0.00     0.210 HD
ENDBRANCH   5  12
TORSDOF 1
ENDMDL
MODEL 4
REMARK VINA RESULT:      -5.7     16.055     17.458
REMARK  1 active torsions:
REMARK  status: ('A' for Active; 'I' for Inactive)
REMARK    1  A    between atoms: O2_2  and  C3_6 
ROOT
HETATM    1  O1  UNK   900      31.513 -50.499 -61.718  1.00  0.00    -0.316 OA
HETATM    2  O3  UNK   900      31.535 -50.234 -63.991  1.00  0.00    -0.265 OA
HETATM    3  C1  UNK   900      29.730 -49.029 -61.184  1.00  0.00     0.031 C 
HETATM    4  C2  UNK   900      30.247 -47.661 -60.659  1.00  0.00     0.022 C 
HETATM    5  C3  UNK   900      31.667 -47.932 -60.121  1.00  0.00     0.060 C 
HETATM    6  C4  UNK   900      30.689 -50.074 -60.624  1.00  0.00     0.139 C 
HETATM    7  C5  UNK   900      31.548 -49.363 -59.583  1.00  0.00     0.071 C 
HETATM    8  C6  UNK   900      29.738 -49.303 -62.673  1.00  0.00     0.118 C 
HETATM    9  C7  UNK   900      30.130 -46.489 -61.625  1.00  0.00     0.013 C 
HETATM   10  C8  UNK   900      32.111 -46.950 -59.041  1.00  0.00     0.046 C 
HETATM   11  C9  UNK   900      31.021 -50.035 -62.901  1.00  0.00     0.259 C 
ENDROOT
BRANCH   5  12
HETATM   12  O2  UNK   900      32.633 -47.915 -61.169  1.00  0.00    -0.390 OA
HETATM   13  H14 UNK   900      32.221 -47.513 -61.953  1.00  0.00     0.210 HD
ENDBRANCH   5  12
TORSDOF 1
ENDMDL
MODEL 5
REMARK VINA RESULT:      -5.6      4.630      5.887
REMARK  1 active torsions:
REMARK  status: ('A' for Active; 'I' for Inactive)
REMARK    1  A    between atoms: O2_2  and  C3_6 
ROOT
HETATM    1  O1  UNK   900      22.009 -37.726 -65.916  1.00  0.00    -0.316 OA
HETATM    2  O3  UNK   900      24.219 -37.146 -65.792  1.00  0.00    -0.265 OA
HETATM    3  C1  UNK   900      22.247 -40.074 -66.150  1.00  0.00     0.031 C 
HETATM    4  C2  UNK   900      22.078 -40.528 -67.626  1.00  0.00     0.022 C 
HETATM    5  C3  UNK   900      21.254 -39.419 -68.311  1.00  0.00     0.060 C 
HETATM    6  C4  UNK   900      21.247 -38.941 -65.951  1.00  0.00     0.139 C 
HETATM    7  C5  UNK   900      20.339 -38.941 -67.177  1.00  0.00     0.071 C 
HETATM    8  C6  UNK   900      23.562 -39.468 -65.706  1.00  0.00     0.118 C 
HETATM    9  C7  UNK   900      23.357 -40.928 -68.351  1.00  0.00     0.013 C 
HETATM   10  C8  UNK   900      20.460 -39.902 -69.520  1.00  0.00     0.046 C 
HETATM   11  C9  UNK   900      23.341 -37.995 -65.823  1.00  0.00     0.259 C 
ENDROOT
BRANCH   5  12
HETATM   12  O2  UNK   900      22.082 -38.332 -68.720  1.00  0.00    -0.390 OA
HETATM   13  H14 UNK   900      21.977 -37.613 -68.074  1.00  0.00     0.210 HD
ENDBRANCH   5  12
TORSDOF 1
ENDMDL
MODEL 6
REMARK VINA RESULT:      -5.5      4.035      5.146
REMARK  1 active torsions:
REMARK  status: ('A' for Active; 'I' for Inactive)
REMARK    1  A    between atoms: O2_2  and  C3_6 
ROOT
HETATM    1  O1  UNK   900      23.444 -39.372 -65.137  1.00  0.00    -0.316 OA
HETATM    2  O3  UNK   900      22.880 -40.919 -66.726  1.00  0.00    -0.265 OA
HETATM    3  C1  UNK   900      21.590 -37.909 -65.360  1.00  0.00     0.031 C 
HETATM    4  C2  UNK   900      21.946 -36.650 -66.197  1.00  0.00     0.022 C 
HETATM    5  C3  UNK   900      23.477 -36.499 -66.092  1.00  0.00     0.060 C 
HETATM    6  C4  UNK   900      22.835 -38.221 -64.536  1.00  0.00     0.139 C 
HETATM    7  C5  UNK   900      23.763 -37.018 -64.678  1.00  0.00     0.071 C 
HETATM    8  C6  UNK   900      21.300 -39.215 -66.070  1.00  0.00     0.118 C 
HETATM    9  C7  UNK   900      21.384 -36.610 -67.613  1.00  0.00     0.013 C 
HETATM   10  C8  UNK   900      23.967 -35.068 -66.285  1.00  0.00     0.046 C 
HETATM   11  C9  UNK   900      22.609 -39.937 -66.053  1.00  0.00     0.259 C 
ENDROOT
BRANCH   5  12
HETATM   12  O2  UNK   900      24.148 -37.335 -67.032  1.00  0.00    -0.390 OA
HETATM   13  H14 UNK   900      23.574 -37.437 -67.810  1.00  0.00     0.210 HD
ENDBRANCH   5  12
TORSDOF 1
ENDMDL
MODEL 7
REMARK VINA RESULT:      -5.4      3.477      4.812
REMARK  1 active torsions:
REMARK  status: ('A' for Active; 'I' for Inactive)
REMARK    1  A    between atoms: O2_2  and  C3_6 
ROOT
HETATM    1  O1  UNK   900      23.244 -36.167 -67.126  1.00  0.00    -0.316 OA
HETATM    2  O3  UNK   900      25.396 -36.632 -66.505  1.00  0.00    -0.265 OA
HETATM    3  C1  UNK   900      22.095 -37.362 -65.430  1.00  0.00     0.031 C 
HETATM    4  C2  UNK   900      21.567 -38.730 -65.944  1.00  0.00     0.022 C 
HETATM    5  C3  UNK   900      21.453 -38.583 -67.475  1.00  0.00     0.060 C 
HETATM    6  C4  UNK   900      21.931 -36.393 -66.596  1.00  0.00     0.139 C 
HETATM    7  C5  UNK   900      21.074 -37.106 -67.638  1.00  0.00     0.071 C 
HETATM    8  C6  UNK   900      23.556 -37.223 -65.058  1.00  0.00     0.118 C 
HETATM    9  C7  UNK   900      22.325 -39.961 -65.464  1.00  0.00     0.013 C 
HETATM   10  C8  UNK   900      20.420 -39.511 -68.106  1.00  0.00     0.046 C 
HETATM   11  C9  UNK   900      24.195 -36.671 -66.291  1.00  0.00     0.259 C 
ENDROOT
BRANCH   5  12
HETATM   12  O2  UNK   900      22.708 -38.807 -68.114  1.00  0.00    -0.390 OA
HETATM   13  H14 UNK   900      23.183 -37.959 -68.153  1.00  0.00     0.210 HD
ENDBRANCH   5  12
TORSDOF 1
ENDMDL
MODEL 8
REMARK VINA RESULT:      -5.3     16.369     17.928
REMARK  1 active torsions:
REMARK  status: ('A' for Active; 'I' for Inactive)
REMARK    1  A    between atoms: O2_2  and  C3_6 
ROOT
HETATM    1  O1  UNK   900      33.172 -48.997 -59.985  1.00  0.00    -0.316 OA
HETATM    2  O3  UNK   900      33.746 -50.814 -61.252  1.00  0.00    -0.265 OA
HETATM    3  C1  UNK   900      30.853 -49.428 -59.735  1.00  0.00     0.031 C 
HETATM    4  C2  UNK   900      29.998 -48.570 -60.707  1.00  0.00     0.022 C 
HETATM    5  C3  UNK   900      30.871 -47.350 -61.064  1.00  0.00     0.060 C 
HETATM    6  C4  UNK   900      32.004 -48.530 -59.297  1.00  0.00     0.139 C 
HETATM    7  C5  UNK   900      31.660 -47.120 -59.770  1.00  0.00     0.071 C 
HETATM    8  C6  UNK   900      31.551 -50.667 -60.257  1.00  0.00     0.118 C 
HETATM    9  C7  UNK   900      29.397 -49.309 -61.897  1.00  0.00     0.013 C 
HETATM   10  C8  UNK   900      30.069 -46.119 -61.470  1.00  0.00     0.046 C 
HETATM   11  C9  UNK   900      32.931 -50.196 -60.585  1.00  0.00     0.259 C 
ENDROOT
BRANCH   5  12
HETATM   12  O2  UNK   900      31.789 -47.655 -62.112  1.00  0.00    -0.390 OA
HETATM   13  H14 UNK   900      31.716 -48.604 -62.310  1.00  0.00     0.210 HD
ENDBRANCH   5  12
TORSDOF 1
ENDMDL
MODEL 9
REMARK VINA RESULT:      -5.1     13.165     14.532
REMARK  1 active torsions:
REMARK  status: ('A' for Active; 'I' for Inactive)
REMARK    1  A    between atoms: O2_2  and  C3_6 
ROOT
HETATM    1  O1  UNK   900      23.415 -21.873 -72.587  1.00  0.00    -0.316 OA
HETATM    2  O3  UNK   900      22.138 -19.979 -72.440  1.00  0.00    -0.265 OA
HETATM    3  C1  UNK   900      24.474 -21.454 -74.667  1.00  0.00     0.031 C 
HETATM    4  C2  UNK   900      23.807 -22.246 -75.825  1.00  0.00     0.022 C 
HETATM    5  C3  UNK   900      23.099 -23.442 -75.156  1.00  0.00     0.060 C 
HETATM    6  C4  UNK   900      24.435 -22.381 -73.457  1.00  0.00     0.139 C 
HETATM    7  C5  UNK   900      24.026 -23.756 -73.976  1.00  0.00     0.071 C 
HETATM    8  C6  UNK   900      23.819 -20.185 -74.162  1.00  0.00     0.118 C 
HETATM    9  C7  UNK   900      22.944 -21.431 -76.780  1.00  0.00     0.013 C 
HETATM   10  C8  UNK   900      22.922 -24.644 -76.079  1.00  0.00     0.046 C 
HETATM   11  C9  UNK   900      23.008 -20.637 -72.990  1.00  0.00     0.259 C 
ENDROOT
BRANCH   5  12
HETATM   12  O2  UNK   900      21.819 -23.072 -74.648  1.00  0.00    -0.390 OA
HETATM   13  H14 UNK   900      21.677 -22.130 -74.844  1.00  0.00     0.210 HD
ENDBRANCH   5  12
TORSDOF 1
ENDMDL
