MODEL 1
REMARK VINA RESULT:      -6.7      0.000      0.000
REMARK  5 active torsions:
REMARK  status: ('A' for Active; 'I' for Inactive)
REMARK    1  A    between atoms: O2_2  and  C3_10 
REMARK    2  A    between atoms: O3_3  and  C5_12 
REMARK    3  A    between atoms: O3_3  and  C15_22 
REMARK    4  A    between atoms: O5_5  and  C12_19 
REMARK    5  A    between atoms: O6_6  and  C13_20 
ROOT
HETATM    1  O1  UNK   900       9.202 -68.982 -49.874  1.00  0.00    -0.301 OA
HETATM    2  O4  UNK   900       9.636 -70.718 -48.495  1.00  0.00    -0.259 OA
HETATM    3  C1  UNK   900       8.780 -67.601 -50.070  1.00  0.00     0.097 C 
HETATM    4  C2  UNK   900       8.577 -67.462 -51.599  1.00  0.00     0.078 C 
HETATM    5  C3  UNK   900       7.748 -66.240 -52.003  1.00  0.00     0.154 C 
HETATM    6  C4  UNK   900       7.502 -67.331 -49.313  1.00  0.00    -0.013 C 
HETATM    7  C5  UNK   900       6.393 -66.219 -51.286  1.00  0.00     0.184 C 
HETATM    8  C6  UNK   900       6.436 -66.728 -49.872  1.00  0.00     0.019 C 
HETATM    9  C7  UNK   900       9.928 -66.699 -49.579  1.00  0.00     0.052 C 
HETATM   10  C8  UNK   900       7.487 -67.862 -47.940  1.00  0.00    -0.005 A 
HETATM   11  C9  UNK   900       8.300 -68.964 -47.638  1.00  0.00     0.083 A 
HETATM   12  C10 UNK   900       9.107 -69.631 -48.687  1.00  0.00     0.298 C 
HETATM   13  C11 UNK   900       6.732 -67.282 -46.909  1.00  0.00     0.050 A 
HETATM   14  C12 UNK   900       8.337 -69.486 -46.337  1.00  0.00     0.085 A 
HETATM   15  C13 UNK   900       6.772 -67.801 -45.613  1.00  0.00     0.071 A 
HETATM   16  C14 UNK   900       7.573 -68.902 -45.328  1.00  0.00     0.074 A 
ENDROOT
BRANCH   7  17
HETATM   17  O3  UNK   900       5.485 -67.039 -52.023  1.00  0.00    -0.310 OA
BRANCH  17  18
HETATM   18  C15 UNK   900       4.161 -66.824 -51.775  1.00  0.00     0.255 C 
HETATM   19  O7  UNK   900       3.362 -67.644 -51.344  1.00  0.00    -0.266 OA
HETATM   20  C16 UNK   900       3.807 -65.407 -52.114  1.00  0.00     0.126 C 
ENDBRANCH  17  18
ENDBRANCH   7  17
BRANCH   5  21
HETATM   21  O2  UNK   900       8.473 -65.051 -51.712  1.00  0.00    -0.393 OA
HETATM   22  H10 UNK   900       8.024 -64.605 -50.974  1.00  0.00     0.210 HD
ENDBRANCH   5  21
BRANCH  14  23
HETATM   23  O5  UNK   900       9.114 -70.552 -45.990  1.00  0.00    -0.360 OA
HETATM   24  H12 UNK   900       9.595 -70.369 -45.169  1.00  0.00     0.217 HD
ENDBRANCH  14  23
BRANCH  15  25
HETATM   25  O6  UNK   900       6.031 -67.225 -44.626  1.00  0.00    -0.356 OA
HETATM   26  C17 UNK   900       4.774 -67.827 -44.324  1.00  0.00     0.210 C 
ENDBRANCH  15  25
TORSDOF 5
ENDMDL
MODEL 2
REMARK VINA RESULT:      -6.5     40.404     43.147
REMARK  5 active torsions:
REMARK  status: ('A' for Active; 'I' for Inactive)
REMARK    1  A    between atoms: O2_2  and  C3_10 
REMARK    2  A    between atoms: O3_3  and  C5_12 
REMARK    3  A    between atoms: O3_3  and  C15_22 
REMARK    4  A    between atoms: O5_5  and  C12_19 
REMARK    5  A    between atoms: O6_6  and  C13_20 
ROOT
HETATM    1  O1  UNK   900      33.649 -37.065 -57.109  1.00  0.00    -0.301 OA
HETATM    2  O4  UNK   900      32.480 -35.501 -58.244  1.00  0.00    -0.259 OA
HETATM    3  C1  UNK   900      34.924 -37.604 -56.652  1.00  0.00     0.097 C 
HETATM    4  C2  UNK   900      34.581 -38.999 -56.075  1.00  0.00     0.078 C 
HETATM    5  C3  UNK   900      35.796 -39.917 -55.914  1.00  0.00     0.154 C 
HETATM    6  C4  UNK   900      35.895 -37.703 -57.805  1.00  0.00    -0.013 C 
HETATM    7  C5  UNK   900      36.567 -40.064 -57.231  1.00  0.00     0.184 C 
HETATM    8  C6  UNK   900      36.610 -38.813 -58.063  1.00  0.00     0.019 C 
HETATM    9  C7  UNK   900      35.449 -36.663 -55.551  1.00  0.00     0.052 C 
HETATM   10  C8  UNK   900      35.926 -36.515 -58.674  1.00  0.00    -0.005 A 
HETATM   11  C9  UNK   900      34.783 -35.703 -58.743  1.00  0.00     0.083 A 
HETATM   12  C10 UNK   900      33.543 -36.063 -58.016  1.00  0.00     0.298 C 
HETATM   13  C11 UNK   900      37.066 -36.132 -59.397  1.00  0.00     0.050 A 
HETATM   14  C12 UNK   900      34.779 -34.549 -59.537  1.00  0.00     0.085 A 
HETATM   15  C13 UNK   900      37.061 -34.979 -60.185  1.00  0.00     0.071 A 
HETATM   16  C14 UNK   900      35.917 -34.189 -60.256  1.00  0.00     0.074 A 
ENDROOT
BRANCH   7  17
HETATM   17  O3  UNK   900      35.936 -41.087 -58.004  1.00  0.00    -0.310 OA
BRANCH  17  18
HETATM   18  C15 UNK   900      36.416 -41.248 -59.272  1.00  0.00     0.255 C 
HETATM   19  O7  UNK   900      35.825 -40.979 -60.309  1.00  0.00    -0.266 OA
HETATM   20  C16 UNK   900      37.802 -41.816 -59.219  1.00  0.00     0.126 C 
ENDBRANCH  17  18
ENDBRANCH   7  17
BRANCH   5  21
HETATM   21  O2  UNK   900      36.654 -39.403 -54.902  1.00  0.00    -0.393 OA
HETATM   22  H10 UNK   900      37.022 -38.564 -55.225  1.00  0.00     0.210 HD
ENDBRANCH   5  21
BRANCH  14  23
HETATM   23  O5  UNK   900      33.697 -33.723 -59.634  1.00  0.00    -0.360 OA
HETATM   24  H12 UNK   900      33.043 -34.091 -60.249  1.00  0.00     0.217 HD
ENDBRANCH  14  23
BRANCH  15  25
HETATM   25  O6  UNK   900      38.177 -34.625 -60.880  1.00  0.00    -0.356 OA
HETATM   26  C17 UNK   900      38.232 -33.290 -61.382  1.00  0.00     0.210 C 
ENDBRANCH  15  25
TORSDOF 5
ENDMDL
MODEL 3
REMARK VINA RESULT:      -6.2     39.952     42.965
REMARK  5 active torsions:
REMARK  status: ('A' for Active; 'I' for Inactive)
REMARK    1  A    between atoms: O2_2  and  C3_10 
REMARK    2  A    between atoms: O3_3  and  C5_12 
REMARK    3  A    between atoms: O3_3  and  C15_22 
REMARK    4  A    between atoms: O5_5  and  C12_19 
REMARK    5  A    between atoms: O6_6  and  C13_20 
ROOT
HETATM    1  O1  UNK   900      38.222 -36.248 -57.644  1.00  0.00    -0.301 OA
HETATM    2  O4  UNK   900      37.904 -34.044 -57.264  1.00  0.00    -0.259 OA
HETATM    3  C1  UNK   900      37.748 -37.517 -58.182  1.00  0.00     0.097 C 
HETATM    4  C2  UNK   900      38.745 -38.573 -57.641  1.00  0.00     0.078 C 
HETATM    5  C3  UNK   900      38.228 -40.011 -57.727  1.00  0.00     0.154 C 
HETATM    6  C4  UNK   900      36.340 -37.792 -57.714  1.00  0.00    -0.013 C 
HETATM    7  C5  UNK   900      36.869 -40.161 -57.032  1.00  0.00     0.184 C 
HETATM    8  C6  UNK   900      35.963 -38.972 -57.187  1.00  0.00     0.019 C 
HETATM    9  C7  UNK   900      37.825 -37.419 -59.717  1.00  0.00     0.052 C 
HETATM   10  C8  UNK   900      35.436 -36.633 -57.800  1.00  0.00    -0.005 A 
HETATM   11  C9  UNK   900      35.989 -35.345 -57.748  1.00  0.00     0.083 A 
HETATM   12  C10 UNK   900      37.442 -35.144 -57.540  1.00  0.00     0.298 C 
HETATM   13  C11 UNK   900      34.050 -36.763 -57.983  1.00  0.00     0.050 A 
HETATM   14  C12 UNK   900      35.168 -34.214 -57.853  1.00  0.00     0.085 A 
HETATM   15  C13 UNK   900      33.234 -35.634 -58.091  1.00  0.00     0.071 A 
HETATM   16  C14 UNK   900      33.792 -34.362 -58.025  1.00  0.00     0.074 A 
ENDROOT
BRANCH   7  17
HETATM   17  O3  UNK   900      37.101 -40.361 -55.637  1.00  0.00    -0.310 OA
BRANCH  17  18
HETATM   18  C15 UNK   900      36.361 -41.347 -55.051  1.00  0.00     0.255 C 
HETATM   19  O7  UNK   900      35.153 -41.324 -54.853  1.00  0.00    -0.266 OA
HETATM   20  C16 UNK   900      37.251 -42.491 -54.673  1.00  0.00     0.126 C 
ENDBRANCH  17  18
ENDBRANCH   7  17
BRANCH   5  21
HETATM   21  O2  UNK   900      38.124 -40.402 -59.091  1.00  0.00    -0.393 OA
HETATM   22  H10 UNK   900      37.271 -40.080 -59.426  1.00  0.00     0.210 HD
ENDBRANCH   5  21
BRANCH  14  23
HETATM   23  O5  UNK   900      35.656 -32.941 -57.814  1.00  0.00    -0.360 OA
HETATM   24  H12 UNK   900      35.095 -32.346 -58.335  1.00  0.00     0.217 HD
ENDBRANCH  14  23
BRANCH  15  25
HETATM   25  O6  UNK   900      31.892 -35.780 -58.267  1.00  0.00    -0.356 OA
HETATM   26  C17 UNK   900      31.303 -36.989 -57.789  1.00  0.00     0.210 C 
ENDBRANCH  15  25
TORSDOF 5
ENDMDL
MODEL 4
REMARK VINA RESULT:      -6.1     39.911     42.023
REMARK  5 active torsions:
REMARK  status: ('A' for Active; 'I' for Inactive)
REMARK    1  A    between atoms: O2_2  and  C3_10 
REMARK    2  A    between atoms: O3_3  and  C5_12 
REMARK    3  A    between atoms: O3_3  and  C15_22 
REMARK    4  A    between atoms: O5_5  and  C12_19 
REMARK    5  A    between atoms: O6_6  and  C13_20 
ROOT
HETATM    1  O1  UNK   900      35.274 -39.916 -55.503  1.00  0.00    -0.301 OA
HETATM    2  O4  UNK   900      33.229 -39.080 -55.029  1.00  0.00    -0.259 OA
HETATM    3  C1  UNK   900      36.604 -39.750 -56.075  1.00  0.00     0.097 C 
HETATM    4  C2  UNK   900      37.210 -41.175 -56.089  1.00  0.00     0.078 C 
HETATM    5  C3  UNK   900      38.422 -41.322 -57.012  1.00  0.00     0.154 C 
HETATM    6  C4  UNK   900      36.508 -39.173 -57.466  1.00  0.00    -0.013 C 
HETATM    7  C5  UNK   900      38.098 -40.870 -58.441  1.00  0.00     0.184 C 
HETATM    8  C6  UNK   900      37.167 -39.692 -58.519  1.00  0.00     0.019 C 
HETATM    9  C7  UNK   900      37.394 -38.823 -55.132  1.00  0.00     0.052 C 
HETATM   10  C8  UNK   900      35.565 -38.050 -57.593  1.00  0.00    -0.005 A 
HETATM   11  C9  UNK   900      34.496 -37.966 -56.688  1.00  0.00     0.083 A 
HETATM   12  C10 UNK   900      34.272 -39.017 -55.668  1.00  0.00     0.298 C 
HETATM   13  C11 UNK   900      35.717 -37.033 -58.549  1.00  0.00     0.050 A 
HETATM   14  C12 UNK   900      33.590 -36.899 -56.755  1.00  0.00     0.085 A 
HETATM   15  C13 UNK   900      34.815 -35.969 -58.612  1.00  0.00     0.071 A 
HETATM   16  C14 UNK   900      33.751 -35.903 -57.717  1.00  0.00     0.074 A 
ENDROOT
BRANCH   7  17
HETATM   17  O3  UNK   900      37.485 -41.963 -59.126  1.00  0.00    -0.310 OA
BRANCH  17  18
HETATM   18  C15 UNK   900      37.924 -42.183 -60.399  1.00  0.00     0.255 C 
HETATM   19  O7  UNK   900      37.237 -42.184 -61.412  1.00  0.00    -0.266 OA
HETATM   20  C16 UNK   900      39.402 -42.430 -60.388  1.00  0.00     0.126 C 
ENDBRANCH  17  18
ENDBRANCH   7  17
BRANCH   5  21
HETATM   21  O2  UNK   900      39.511 -40.565 -56.496  1.00  0.00    -0.393 OA
HETATM   22  H10 UNK   900      39.251 -40.233 -55.621  1.00  0.00     0.210 HD
ENDBRANCH   5  21
BRANCH  14  23
HETATM   23  O5  UNK   900      32.538 -36.768 -55.896  1.00  0.00    -0.360 OA
HETATM   24  H12 UNK   900      31.702 -36.943 -56.353  1.00  0.00     0.217 HD
ENDBRANCH  14  23
BRANCH  15  25
HETATM   25  O6  UNK   900      34.979 -34.993 -59.547  1.00  0.00    -0.356 OA
HETATM   26  C17 UNK   900      36.319 -34.644 -59.892  1.00  0.00     0.210 C 
ENDBRANCH  15  25
TORSDOF 5
ENDMDL
MODEL 5
REMARK VINA RESULT:      -6.1     39.633     42.385
REMARK  5 active torsions:
REMARK  status: ('A' for Active; 'I' for Inactive)
REMARK    1  A    between atoms: O2_2  and  C3_10 
REMARK    2  A    between atoms: O3_3  and  C5_12 
REMARK    3  A    between atoms: O3_3  and  C15_22 
REMARK    4  A    between atoms: O5_5  and  C12_19 
REMARK    5  A    between atoms: O6_6  and  C13_20 
ROOT
HETATM    1  O1  UNK   900      37.079 -40.641 -55.877  1.00  0.00    -0.301 OA
HETATM    2  O4  UNK   900      35.173 -41.277 -54.846  1.00  0.00    -0.259 OA
HETATM    3  C1  UNK   900      37.900 -39.601 -56.485  1.00  0.00     0.097 C 
HETATM    4  C2  UNK   900      39.058 -40.362 -57.175  1.00  0.00     0.078 C 
HETATM    5  C3  UNK   900      39.811 -39.529 -58.216  1.00  0.00     0.154 C 
HETATM    6  C4  UNK   900      37.087 -38.806 -57.479  1.00  0.00    -0.013 C 
HETATM    7  C5  UNK   900      38.858 -38.949 -59.267  1.00  0.00     0.184 C 
HETATM    8  C6  UNK   900      37.519 -38.536 -58.724  1.00  0.00     0.019 C 
HETATM    9  C7  UNK   900      38.425 -38.709 -55.344  1.00  0.00     0.052 C 
HETATM   10  C8  UNK   900      35.747 -38.428 -57.001  1.00  0.00    -0.005 A 
HETATM   11  C9  UNK   900      35.135 -39.224 -56.021  1.00  0.00     0.083 A 
HETATM   12  C10 UNK   900      35.784 -40.459 -55.522  1.00  0.00     0.298 C 
HETATM   13  C11 UNK   900      35.076 -37.279 -57.448  1.00  0.00     0.050 A 
HETATM   14  C12 UNK   900      33.870 -38.886 -55.518  1.00  0.00     0.085 A 
HETATM   15  C13 UNK   900      33.818 -36.942 -56.944  1.00  0.00     0.071 A 
HETATM   16  C14 UNK   900      33.215 -37.746 -55.981  1.00  0.00     0.074 A 
ENDROOT
BRANCH   7  17
HETATM   17  O3  UNK   900      38.641 -39.944 -60.268  1.00  0.00    -0.310 OA
BRANCH  17  18
HETATM   18  C15 UNK   900      39.418 -39.837 -61.385  1.00  0.00     0.255 C 
HETATM   19  O7  UNK   900      40.018 -40.748 -61.939  1.00  0.00    -0.266 OA
HETATM   20  C16 UNK   900      39.436 -38.413 -61.854  1.00  0.00     0.126 C 
ENDBRANCH  17  18
ENDBRANCH   7  17
BRANCH   5  21
HETATM   21  O2  UNK   900      40.519 -38.479 -57.566  1.00  0.00    -0.393 OA
HETATM   22  H10 UNK   900      39.865 -37.906 -57.133  1.00  0.00     0.210 HD
ENDBRANCH   5  21
BRANCH  14  23
HETATM   23  O5  UNK   900      33.235 -39.623 -54.562  1.00  0.00    -0.360 OA
HETATM   24  H12 UNK   900      33.517 -39.346 -53.677  1.00  0.00     0.217 HD
ENDBRANCH  14  23
BRANCH  15  25
HETATM   25  O6  UNK   900      33.183 -35.824 -57.390  1.00  0.00    -0.356 OA
HETATM   26  C17 UNK   900      34.005 -34.747 -57.839  1.00  0.00     0.210 C 
ENDBRANCH  15  25
TORSDOF 5
ENDMDL
MODEL 6
REMARK VINA RESULT:      -5.8     40.422     43.482
REMARK  5 active torsions:
REMARK  status: ('A' for Active; 'I' for Inactive)
REMARK    1  A    between atoms: O2_2  and  C3_10 
REMARK    2  A    between atoms: O3_3  and  C5_12 
REMARK    3  A    between atoms: O3_3  and  C15_22 
REMARK    4  A    between atoms: O5_5  and  C12_19 
REMARK    5  A    between atoms: O6_6  and  C13_20 
ROOT
HETATM    1  O1  UNK   900      38.899 -38.599 -59.550  1.00  0.00    -0.301 OA
HETATM    2  O4  UNK   900      40.142 -36.882 -60.329  1.00  0.00    -0.259 OA
HETATM    3  C1  UNK   900      37.596 -39.210 -59.316  1.00  0.00     0.097 C 
HETATM    4  C2  UNK   900      37.888 -40.425 -58.400  1.00  0.00     0.078 C 
HETATM    5  C3  UNK   900      36.648 -40.975 -57.689  1.00  0.00     0.154 C 
HETATM    6  C4  UNK   900      36.666 -38.224 -58.650  1.00  0.00    -0.013 C 
HETATM    7  C5  UNK   900      35.923 -39.879 -56.899  1.00  0.00     0.184 C 
HETATM    8  C6  UNK   900      35.937 -38.530 -57.562  1.00  0.00     0.019 C 
HETATM    9  C7  UNK   900      37.053 -39.665 -60.683  1.00  0.00     0.052 C 
HETATM   10  C8  UNK   900      36.693 -36.875 -59.239  1.00  0.00    -0.005 A 
HETATM   11  C9  UNK   900      37.854 -36.456 -59.904  1.00  0.00     0.083 A 
HETATM   12  C10 UNK   900      39.059 -37.316 -59.958  1.00  0.00     0.298 C 
HETATM   13  C11 UNK   900      35.587 -36.010 -59.206  1.00  0.00     0.050 A 
HETATM   14  C12 UNK   900      37.913 -35.189 -60.502  1.00  0.00     0.085 A 
HETATM   15  C13 UNK   900      35.647 -34.750 -59.805  1.00  0.00     0.071 A 
HETATM   16  C14 UNK   900      36.809 -34.340 -60.451  1.00  0.00     0.074 A 
ENDROOT
BRANCH   7  17
HETATM   17  O3  UNK   900      36.558 -39.753 -55.626  1.00  0.00    -0.310 OA
BRANCH  17  18
HETATM   18  C15 UNK   900      36.339 -40.779 -54.754  1.00  0.00     0.255 C 
HETATM   19  O7  UNK   900      35.324 -41.457 -54.674  1.00  0.00    -0.266 OA
HETATM   20  C16 UNK   900      37.544 -40.968 -53.883  1.00  0.00     0.126 C 
ENDBRANCH  17  18
ENDBRANCH   7  17
BRANCH   5  21
HETATM   21  O2  UNK   900      35.766 -41.554 -58.644  1.00  0.00    -0.393 OA
HETATM   22  H10 UNK   900      35.063 -42.012 -58.156  1.00  0.00     0.210 HD
ENDBRANCH   5  21
BRANCH  14  23
HETATM   23  O5  UNK   900      39.015 -34.735 -61.165  1.00  0.00    -0.360 OA
HETATM   24  H12 UNK   900      39.772 -34.672 -60.563  1.00  0.00     0.217 HD
ENDBRANCH  14  23
BRANCH  15  25
HETATM   25  O6  UNK   900      34.565 -33.925 -59.762  1.00  0.00    -0.356 OA
HETATM   26  C17 UNK   900      33.733 -34.006 -58.605  1.00  0.00     0.210 C 
ENDBRANCH  15  25
TORSDOF 5
ENDMDL
MODEL 7
REMARK VINA RESULT:      -5.7     41.111     43.936
REMARK  5 active torsions:
REMARK  status: ('A' for Active; 'I' for Inactive)
REMARK    1  A    between atoms: O2_2  and  C3_10 
REMARK    2  A    between atoms: O3_3  and  C5_12 
REMARK    3  A    between atoms: O3_3  and  C15_22 
REMARK    4  A    between atoms: O5_5  and  C12_19 
REMARK    5  A    between atoms: O6_6  and  C13_20 
ROOT
HETATM    1  O1  UNK   900      37.813 -39.366 -61.866  1.00  0.00    -0.301 OA
HETATM    2  O4  UNK   900      36.566 -41.234 -61.625  1.00  0.00    -0.259 OA
HETATM    3  C1  UNK   900      38.636 -38.314 -61.282  1.00  0.00     0.097 C 
HETATM    4  C2  UNK   900      38.822 -37.280 -62.421  1.00  0.00     0.078 C 
HETATM    5  C3  UNK   900      39.295 -35.907 -61.937  1.00  0.00     0.154 C 
HETATM    6  C4  UNK   900      37.940 -37.705 -60.089  1.00  0.00    -0.013 C 
HETATM    7  C5  UNK   900      38.366 -35.342 -60.856  1.00  0.00     0.184 C 
HETATM    8  C6  UNK   900      37.811 -36.377 -59.918  1.00  0.00     0.019 C 
HETATM    9  C7  UNK   900      39.981 -38.952 -60.887  1.00  0.00     0.052 C 
HETATM   10  C8  UNK   900      37.336 -38.688 -59.173  1.00  0.00    -0.005 A 
HETATM   11  C9  UNK   900      36.959 -39.939 -59.685  1.00  0.00     0.083 A 
HETATM   12  C10 UNK   900      37.095 -40.248 -61.128  1.00  0.00     0.298 C 
HETATM   13  C11 UNK   900      37.169 -38.446 -57.801  1.00  0.00     0.050 A 
HETATM   14  C12 UNK   900      36.406 -40.914 -58.844  1.00  0.00     0.085 A 
HETATM   15  C13 UNK   900      36.620 -39.420 -56.964  1.00  0.00     0.071 A 
HETATM   16  C14 UNK   900      36.238 -40.652 -57.485  1.00  0.00     0.074 A 
ENDROOT
BRANCH   7  17
HETATM   17  O3  UNK   900      37.267 -34.700 -61.505  1.00  0.00    -0.310 OA
BRANCH  17  18
HETATM   18  C15 UNK   900      36.578 -33.799 -60.746  1.00  0.00     0.255 C 
HETATM   19  O7  UNK   900      35.396 -33.870 -60.435  1.00  0.00    -0.266 OA
HETATM   20  C16 UNK   900      37.489 -32.683 -60.334  1.00  0.00     0.126 C 
ENDBRANCH  17  18
ENDBRANCH   7  17
BRANCH   5  21
HETATM   21  O2  UNK   900      40.623 -36.008 -61.434  1.00  0.00    -0.393 OA
HETATM   22  H10 UNK   900      40.891 -36.940 -61.493  1.00  0.00     0.210 HD
ENDBRANCH   5  21
BRANCH  14  23
HETATM   23  O5  UNK   900      36.027 -42.146 -59.290  1.00  0.00    -0.360 OA
HETATM   24  H12 UNK   900      35.067 -42.182 -59.416  1.00  0.00     0.217 HD
ENDBRANCH  14  23
BRANCH  15  25
HETATM   25  O6  UNK   900      36.465 -39.166 -55.635  1.00  0.00    -0.356 OA
HETATM   26  C17 UNK   900      37.536 -39.545 -54.773  1.00  0.00     0.210 C 
ENDBRANCH  15  25
TORSDOF 5
ENDMDL
MODEL 8
REMARK VINA RESULT:      -5.5     55.040     58.753
REMARK  5 active torsions:
REMARK  status: ('A' for Active; 'I' for Inactive)
REMARK    1  A    between atoms: O2_2  and  C3_10 
REMARK    2  A    between atoms: O3_3  and  C5_12 
REMARK    3  A    between atoms: O3_3  and  C15_22 
REMARK    4  A    between atoms: O5_5  and  C12_19 
REMARK    5  A    between atoms: O6_6  and  C13_20 
ROOT
HETATM    1  O1  UNK   900      26.020 -37.425 -95.970  1.00  0.00    -0.301 OA
HETATM    2  O4  UNK   900      26.438 -36.054 -97.716  1.00  0.00    -0.259 OA
HETATM    3  C1  UNK   900      26.235 -37.797 -94.577  1.00  0.00     0.097 C 
HETATM    4  C2  UNK   900      25.582 -39.195 -94.435  1.00  0.00     0.078 C 
HETATM    5  C3  UNK   900      26.033 -39.964 -93.191  1.00  0.00     0.154 C 
HETATM    6  C4  UNK   900      27.712 -37.841 -94.268  1.00  0.00    -0.013 C 
HETATM    7  C5  UNK   900      27.561 -40.084 -93.128  1.00  0.00     0.184 C 
HETATM    8  C6  UNK   900      28.296 -38.875 -93.636  1.00  0.00     0.019 C 
HETATM    9  C7  UNK   900      25.507 -36.755 -93.708  1.00  0.00     0.052 C 
HETATM   10  C8  UNK   900      28.475 -36.697 -94.797  1.00  0.00    -0.005 A 
HETATM   11  C9  UNK   900      27.979 -36.022 -95.922  1.00  0.00     0.083 A 
HETATM   12  C10 UNK   900      26.753 -36.484 -96.613  1.00  0.00     0.298 C 
HETATM   13  C11 UNK   900      29.651 -36.224 -94.192  1.00  0.00     0.050 A 
HETATM   14  C12 UNK   900      28.660 -34.912 -96.441  1.00  0.00     0.085 A 
HETATM   15  C13 UNK   900      30.325 -35.116 -94.710  1.00  0.00     0.071 A 
HETATM   16  C14 UNK   900      29.831 -34.462 -95.834  1.00  0.00     0.074 A 
ENDROOT
BRANCH   7  17
HETATM   17  O3  UNK   900      27.952 -41.205 -93.923  1.00  0.00    -0.310 OA
BRANCH  17  18
HETATM   18  C15 UNK   900      27.448 -42.411 -93.531  1.00  0.00     0.255 C 
HETATM   19  O7  UNK   900      27.443 -42.857 -92.392  1.00  0.00    -0.266 OA
HETATM   20  C16 UNK   900      26.886 -43.134 -94.718  1.00  0.00     0.126 C 
ENDBRANCH  17  18
ENDBRANCH   7  17
BRANCH   5  21
HETATM   21  O2  UNK   900      25.548 -39.312 -92.023  1.00  0.00    -0.393 OA
HETATM   22  H10 UNK   900      26.094 -38.522 -91.877  1.00  0.00     0.210 HD
ENDBRANCH   5  21
BRANCH  14  23
HETATM   23  O5  UNK   900      28.217 -34.217 -97.529  1.00  0.00    -0.360 OA
HETATM   24  H12 UNK   900      28.514 -33.296 -97.487  1.00  0.00     0.217 HD
ENDBRANCH  14  23
BRANCH  15  25
HETATM   25  O6  UNK   900      31.464 -34.672 -94.111  1.00  0.00    -0.356 OA
HETATM   26  C17 UNK   900      32.624 -34.549 -94.933  1.00  0.00     0.210 C 
ENDBRANCH  15  25
TORSDOF 5
ENDMDL
MODEL 9
REMARK VINA RESULT:      -5.5     41.020     43.912
REMARK  5 active torsions:
REMARK  status: ('A' for Active; 'I' for Inactive)
REMARK    1  A    between atoms: O2_2  and  C3_10 
REMARK    2  A    between atoms: O3_3  and  C5_12 
REMARK    3  A    between atoms: O3_3  and  C15_22 
REMARK    4  A    between atoms: O5_5  and  C12_19 
REMARK    5  A    between atoms: O6_6  and  C13_20 
ROOT
HETATM    1  O1  UNK   900      37.496 -39.218 -57.046  1.00  0.00    -0.301 OA
HETATM    2  O4  UNK   900      35.574 -40.146 -56.304  1.00  0.00    -0.259 OA
HETATM    3  C1  UNK   900      38.271 -38.038 -57.406  1.00  0.00     0.097 C 
HETATM    4  C2  UNK   900      39.539 -38.593 -58.099  1.00  0.00     0.078 C 
HETATM    5  C3  UNK   900      40.299 -37.551 -58.924  1.00  0.00     0.154 C 
HETATM    6  C4  UNK   900      37.475 -37.150 -58.332  1.00  0.00    -0.013 C 
HETATM    7  C5  UNK   900      39.386 -36.875 -59.954  1.00  0.00     0.184 C 
HETATM    8  C6  UNK   900      37.979 -36.651 -59.476  1.00  0.00     0.019 C 
HETATM    9  C7  UNK   900      38.629 -37.310 -56.096  1.00  0.00     0.052 C 
HETATM   10  C8  UNK   900      36.074 -36.951 -57.924  1.00  0.00    -0.005 A 
HETATM   11  C9  UNK   900      35.456 -37.936 -57.141  1.00  0.00     0.083 A 
HETATM   12  C10 UNK   900      36.165 -39.187 -56.784  1.00  0.00     0.298 C 
HETATM   13  C11 UNK   900      35.347 -35.793 -58.245  1.00  0.00     0.050 A 
HETATM   14  C12 UNK   900      34.133 -37.775 -56.708  1.00  0.00     0.085 A 
HETATM   15  C13 UNK   900      34.030 -35.632 -57.810  1.00  0.00     0.071 A 
HETATM   16  C14 UNK   900      33.423 -36.623 -57.044  1.00  0.00     0.074 A 
ENDROOT
BRANCH   7  17
HETATM   17  O3  UNK   900      39.331 -37.706 -61.114  1.00  0.00    -0.310 OA
BRANCH  17  18
HETATM   18  C15 UNK   900      39.356 -37.051 -62.311  1.00  0.00     0.255 C 
HETATM   19  O7  UNK   900      38.418 -36.924 -63.086  1.00  0.00    -0.266 OA
HETATM   20  C16 UNK   900      40.726 -36.494 -62.554  1.00  0.00     0.126 C 
ENDBRANCH  17  18
ENDBRANCH   7  17
BRANCH   5  21
HETATM   21  O2  UNK   900      40.864 -36.573 -58.057  1.00  0.00    -0.393 OA
HETATM   22  H10 UNK   900      40.719 -35.702 -58.461  1.00  0.00     0.210 HD
ENDBRANCH   5  21
BRANCH  14  23
HETATM   23  O5  UNK   900      33.488 -38.700 -55.940  1.00  0.00    -0.360 OA
HETATM   24  H12 UNK   900      33.030 -39.345 -56.499  1.00  0.00     0.217 HD
ENDBRANCH  14  23
BRANCH  15  25
HETATM   25  O6  UNK   900      33.340 -34.503 -58.131  1.00  0.00    -0.356 OA
HETATM   26  C17 UNK   900      34.074 -33.279 -58.150  1.00  0.00     0.210 C 
ENDBRANCH  15  25
TORSDOF 5
ENDMDL
