MODEL 1
REMARK VINA RESULT:      -6.0      0.000      0.000
REMARK  6 active torsions:
REMARK  status: ('A' for Active; 'I' for Inactive)
REMARK    1  A    between atoms: O1_1  and  C2_7 
REMARK    2  A    between atoms: O2_2  and  C6_11 
REMARK    3  A    between atoms: O3_3  and  C7_12 
REMARK    4  A    between atoms: O4_4  and  C4_9 
REMARK    5  A    between atoms: C1_6  and  C3_8 
REMARK    6  A    between atoms: C3_8  and  C9_14 
ROOT
HETATM    1  C1  UNK   900      32.043 -50.850 -60.168  1.00  0.00    -0.035 A 
HETATM    2  C2  UNK   900      33.276 -50.181 -60.729  1.00  0.00     0.207 A 
HETATM    3  C4  UNK   900      33.389 -52.762 -59.261  1.00  0.00     0.200 A 
HETATM    4  C5  UNK   900      32.111 -52.015 -59.503  1.00  0.00     0.018 A 
HETATM    5  C6  UNK   900      34.571 -50.907 -60.457  1.00  0.00     0.110 A 
HETATM    6  C7  UNK   900      34.621 -52.080 -59.793  1.00  0.00     0.110 A 
ENDROOT
BRANCH   1   7
HETATM    7  C3  UNK   900      30.735 -50.136 -60.366  1.00  0.00     0.082 C 
HETATM    8  C8  UNK   900      30.399 -49.971 -61.840  1.00  0.00     0.023 C 
BRANCH   7   9
HETATM    9  C9  UNK   900      30.809 -48.767 -59.701  1.00  0.00     0.131 C 
HETATM   10  O5  UNK   900      31.106 -48.616 -58.515  1.00  0.00    -0.298 OA
HETATM   11  C10 UNK   900      30.547 -47.577 -60.590  1.00  0.00     0.091 C 
ENDBRANCH   7   9
ENDBRANCH   1   7
BRANCH   2  12
HETATM   12  O1  UNK   900      33.108 -50.060 -62.143  1.00  0.00    -0.384 OA
HETATM   13  H8  UNK   900      32.494 -50.756 -62.436  1.00  0.00     0.211 HD
ENDBRANCH   2  12
BRANCH   5  14
HETATM   14  O2  UNK   900      35.727 -50.301 -60.910  1.00  0.00    -0.355 OA
HETATM   15  C11 UNK   900      35.896 -49.033 -60.309  1.00  0.00     0.209 C 
ENDBRANCH   5  14
BRANCH   3  16
HETATM   16  O4  UNK   900      33.516 -52.931 -57.849  1.00  0.00    -0.385 OA
HETATM   17  H12 UNK   900      34.184 -52.297 -57.533  1.00  0.00     0.210 HD
ENDBRANCH   3  16
BRANCH   6  18
HETATM   18  O3  UNK   900      35.826 -52.724 -59.585  1.00  0.00    -0.355 OA
HETATM   19  C12 UNK   900      35.850 -53.968 -60.255  1.00  0.00     0.209 C 
ENDBRANCH   6  18
TORSDOF 6
ENDMDL
MODEL 2
REMARK VINA RESULT:      -6.0      1.878      5.457
REMARK  6 active torsions:
REMARK  status: ('A' for Active; 'I' for Inactive)
REMARK    1  A    between atoms: O1_1  and  C2_7 
REMARK    2  A    between atoms: O2_2  and  C6_11 
REMARK    3  A    between atoms: O3_3  and  C7_12 
REMARK    4  A    between atoms: O4_4  and  C4_9 
REMARK    5  A    between atoms: C1_6  and  C3_8 
REMARK    6  A    between atoms: C3_8  and  C9_14 
ROOT
HETATM    1  C1  UNK   900      32.641 -49.763 -60.589  1.00  0.00    -0.035 A 
HETATM    2  C2  UNK   900      31.920 -48.494 -60.197  1.00  0.00     0.207 A 
HETATM    3  C4  UNK   900      31.136 -50.109 -62.566  1.00  0.00     0.200 A 
HETATM    4  C5  UNK   900      32.277 -50.479 -61.666  1.00  0.00     0.018 A 
HETATM    5  C6  UNK   900      30.795 -48.094 -61.120  1.00  0.00     0.110 A 
HETATM    6  C7  UNK   900      30.437 -48.828 -62.193  1.00  0.00     0.110 A 
ENDROOT
BRANCH   1   7
HETATM    7  C3  UNK   900      33.806 -50.173 -59.733  1.00  0.00     0.082 C 
HETATM    8  C8  UNK   900      35.131 -49.986 -60.455  1.00  0.00     0.023 C 
BRANCH   7   9
HETATM    9  C9  UNK   900      33.641 -51.634 -59.333  1.00  0.00     0.131 C 
HETATM   10  O5  UNK   900      32.605 -52.078 -58.838  1.00  0.00    -0.298 OA
HETATM   11  C10 UNK   900      34.811 -52.542 -59.622  1.00  0.00     0.091 C 
ENDBRANCH   7   9
ENDBRANCH   1   7
BRANCH   2  12
HETATM   12  O1  UNK   900      31.392 -48.676 -58.882  1.00  0.00    -0.384 OA
HETATM   13  H8  UNK   900      32.013 -48.279 -58.248  1.00  0.00     0.211 HD
ENDBRANCH   2  12
BRANCH   5  14
HETATM   14  O2  UNK   900      30.143 -46.912 -60.823  1.00  0.00    -0.355 OA
HETATM   15  C11 UNK   900      31.019 -45.811 -60.955  1.00  0.00     0.209 C 
ENDBRANCH   5  14
BRANCH   3  16
HETATM   16  O4  UNK   900      31.663 -49.990 -63.887  1.00  0.00    -0.385 OA
HETATM   17  H12 UNK   900      32.634 -50.023 -63.824  1.00  0.00     0.210 HD
ENDBRANCH   3  16
BRANCH   6  18
HETATM   18  O3  UNK   900      29.385 -48.437 -62.998  1.00  0.00    -0.355 OA
HETATM   19  C12 UNK   900      29.826 -47.538 -63.995  1.00  0.00     0.209 C 
ENDBRANCH   6  18
TORSDOF 6
ENDMDL
MODEL 3
REMARK VINA RESULT:      -6.0      3.183      6.469
REMARK  6 active torsions:
REMARK  status: ('A' for Active; 'I' for Inactive)
REMARK    1  A    between atoms: O1_1  and  C2_7 
REMARK    2  A    between atoms: O2_2  and  C6_11 
REMARK    3  A    between atoms: O3_3  and  C7_12 
REMARK    4  A    between atoms: O4_4  and  C4_9 
REMARK    5  A    between atoms: C1_6  and  C3_8 
REMARK    6  A    between atoms: C3_8  and  C9_14 
ROOT
HETATM    1  C1  UNK   900      30.943 -48.732 -61.956  1.00  0.00    -0.035 A 
HETATM    2  C2  UNK   900      30.497 -48.758 -63.400  1.00  0.00     0.207 A 
HETATM    3  C4  UNK   900      31.268 -46.246 -62.013  1.00  0.00     0.200 A 
HETATM    4  C5  UNK   900      31.283 -47.587 -61.342  1.00  0.00     0.018 A 
HETATM    5  C6  UNK   900      30.442 -47.408 -64.071  1.00  0.00     0.110 A 
HETATM    6  C7  UNK   900      30.794 -46.268 -63.442  1.00  0.00     0.110 A 
ENDROOT
BRANCH   1   7
HETATM    7  C3  UNK   900      30.960 -50.047 -61.229  1.00  0.00     0.082 C 
HETATM    8  C8  UNK   900      30.289 -49.947 -59.868  1.00  0.00     0.023 C 
BRANCH   7   9
HETATM    9  C9  UNK   900      32.403 -50.503 -61.057  1.00  0.00     0.131 C 
HETATM   10  O5  UNK   900      33.270 -50.312 -61.910  1.00  0.00    -0.298 OA
HETATM   11  C10 UNK   900      32.742 -51.168 -59.746  1.00  0.00     0.091 C 
ENDBRANCH   7   9
ENDBRANCH   1   7
BRANCH   2  12
HETATM   12  O1  UNK   900      31.402 -49.593 -64.125  1.00  0.00    -0.384 OA
HETATM   13  H8  UNK   900      31.154 -50.520 -63.966  1.00  0.00     0.211 HD
ENDBRANCH   2  12
BRANCH   5  14
HETATM   14  O2  UNK   900      29.991 -47.384 -65.378  1.00  0.00    -0.355 OA
HETATM   15  C11 UNK   900      28.605 -47.112 -65.423  1.00  0.00     0.209 C 
ENDBRANCH   5  14
BRANCH   3  16
HETATM   16  O4  UNK   900      30.410 -45.402 -61.246  1.00  0.00    -0.385 OA
HETATM   17  H12 UNK   900      30.784 -45.332 -60.350  1.00  0.00     0.210 HD
ENDBRANCH   3  16
BRANCH   6  18
HETATM   18  O3  UNK   900      30.752 -45.054 -64.102  1.00  0.00    -0.355 OA
HETATM   19  C12 UNK   900      32.055 -44.539 -64.285  1.00  0.00     0.209 C 
ENDBRANCH   6  18
TORSDOF 6
ENDMDL
MODEL 4
REMARK VINA RESULT:      -5.7      5.057      8.131
REMARK  6 active torsions:
REMARK  status: ('A' for Active; 'I' for Inactive)
REMARK    1  A    between atoms: O1_1  and  C2_7 
REMARK    2  A    between atoms: O2_2  and  C6_11 
REMARK    3  A    between atoms: O3_3  and  C7_12 
REMARK    4  A    between atoms: O4_4  and  C4_9 
REMARK    5  A    between atoms: C1_6  and  C3_8 
REMARK    6  A    between atoms: C3_8  and  C9_14 
ROOT
HETATM    1  C1  UNK   900      30.841 -46.366 -63.525  1.00  0.00    -0.035 A 
HETATM    2  C2  UNK   900      30.028 -47.194 -64.492  1.00  0.00     0.207 A 
HETATM    3  C4  UNK   900      31.580 -44.808 -65.347  1.00  0.00     0.200 A 
HETATM    4  C5  UNK   900      31.533 -45.286 -63.927  1.00  0.00     0.018 A 
HETATM    5  C6  UNK   900      30.038 -46.697 -65.917  1.00  0.00     0.110 A 
HETATM    6  C7  UNK   900      30.745 -45.616 -66.305  1.00  0.00     0.110 A 
ENDROOT
BRANCH   1   7
HETATM    7  C3  UNK   900      30.816 -46.789 -62.083  1.00  0.00     0.082 C 
HETATM    8  C8  UNK   900      30.476 -45.629 -61.160  1.00  0.00     0.023 C 
BRANCH   7   9
HETATM    9  C9  UNK   900      32.177 -47.361 -61.708  1.00  0.00     0.131 C 
HETATM   10  O5  UNK   900      32.739 -48.236 -62.367  1.00  0.00    -0.298 OA
HETATM   11  C10 UNK   900      32.843 -46.759 -60.496  1.00  0.00     0.091 C 
ENDBRANCH   7   9
ENDBRANCH   1   7
BRANCH   2  12
HETATM   12  O1  UNK   900      30.540 -48.527 -64.469  1.00  0.00    -0.384 OA
HETATM   13  H8  UNK   900      30.630 -48.802 -63.540  1.00  0.00     0.211 HD
ENDBRANCH   2  12
BRANCH   5  14
HETATM   14  O2  UNK   900      29.266 -47.399 -66.823  1.00  0.00    -0.355 OA
HETATM   15  C11 UNK   900      27.902 -47.055 -66.690  1.00  0.00     0.209 C 
ENDBRANCH   5  14
BRANCH   3  16
HETATM   16  O4  UNK   900      31.125 -43.456 -65.351  1.00  0.00    -0.385 OA
HETATM   17  H12 UNK   900      31.305 -43.078 -64.472  1.00  0.00     0.210 HD
ENDBRANCH   3  16
BRANCH   6  18
HETATM   18  O3  UNK   900      30.746 -45.208 -67.626  1.00  0.00    -0.355 OA
HETATM   19  C12 UNK   900      31.957 -45.570 -68.259  1.00  0.00     0.209 C 
ENDBRANCH   6  18
TORSDOF 6
ENDMDL
MODEL 5
REMARK VINA RESULT:      -5.5     31.771     32.744
REMARK  6 active torsions:
REMARK  status: ('A' for Active; 'I' for Inactive)
REMARK    1  A    between atoms: O1_1  and  C2_7 
REMARK    2  A    between atoms: O2_2  and  C6_11 
REMARK    3  A    between atoms: O3_3  and  C7_12 
REMARK    4  A    between atoms: O4_4  and  C4_9 
REMARK    5  A    between atoms: C1_6  and  C3_8 
REMARK    6  A    between atoms: C3_8  and  C9_14 
ROOT
HETATM    1  C1  UNK   900      25.498 -23.256 -74.553  1.00  0.00    -0.035 A 
HETATM    2  C2  UNK   900      24.677 -23.287 -73.285  1.00  0.00     0.207 A 
HETATM    3  C4  UNK   900      26.790 -21.254 -73.769  1.00  0.00     0.200 A 
HETATM    4  C5  UNK   900      26.453 -22.333 -74.755  1.00  0.00     0.018 A 
HETATM    5  C6  UNK   900      25.036 -22.228 -72.271  1.00  0.00     0.110 A 
HETATM    6  C7  UNK   900      25.993 -21.304 -72.492  1.00  0.00     0.110 A 
ENDROOT
BRANCH   1   7
HETATM    7  C3  UNK   900      25.215 -24.326 -75.570  1.00  0.00     0.082 C 
HETATM    8  C8  UNK   900      26.327 -24.432 -76.602  1.00  0.00     0.023 C 
BRANCH   7   9
HETATM    9  C9  UNK   900      23.897 -24.016 -76.267  1.00  0.00     0.131 C 
HETATM   10  O5  UNK   900      23.601 -22.890 -76.666  1.00  0.00    -0.298 OA
HETATM   11  C10 UNK   900      22.971 -25.185 -76.496  1.00  0.00     0.091 C 
ENDBRANCH   7   9
ENDBRANCH   1   7
BRANCH   2  12
HETATM   12  O1  UNK   900      23.304 -23.129 -73.645  1.00  0.00    -0.384 OA
HETATM   13  H8  UNK   900      22.767 -23.212 -72.839  1.00  0.00     0.211 HD
ENDBRANCH   2  12
BRANCH   5  14
HETATM   14  O2  UNK   900      24.341 -22.254 -71.077  1.00  0.00    -0.355 OA
HETATM   15  C11 UNK   900      23.271 -21.332 -71.100  1.00  0.00     0.209 C 
ENDBRANCH   5  14
BRANCH   3  16
HETATM   16  O4  UNK   900      28.178 -21.382 -73.463  1.00  0.00    -0.385 OA
HETATM   17  H12 UNK   900      28.257 -21.939 -72.669  1.00  0.00     0.210 HD
ENDBRANCH   3  16
BRANCH   6  18
HETATM   18  O3  UNK   900      26.274 -20.336 -71.547  1.00  0.00    -0.355 OA
HETATM   19  C12 UNK   900      26.001 -19.046 -72.055  1.00  0.00     0.209 C 
ENDBRANCH   6  18
TORSDOF 6
ENDMDL
MODEL 6
REMARK VINA RESULT:      -5.4     31.979     33.002
REMARK  6 active torsions:
REMARK  status: ('A' for Active; 'I' for Inactive)
REMARK    1  A    between atoms: O1_1  and  C2_7 
REMARK    2  A    between atoms: O2_2  and  C6_11 
REMARK    3  A    between atoms: O3_3  and  C7_12 
REMARK    4  A    between atoms: O4_4  and  C4_9 
REMARK    5  A    between atoms: C1_6  and  C3_8 
REMARK    6  A    between atoms: C3_8  and  C9_14 
ROOT
HETATM    1  C1  UNK   900      24.509 -22.333 -74.528  1.00  0.00    -0.035 A 
HETATM    2  C2  UNK   900      25.807 -21.675 -74.118  1.00  0.00     0.207 A 
HETATM    3  C4  UNK   900      23.621 -22.238 -72.183  1.00  0.00     0.200 A 
HETATM    4  C5  UNK   900      23.529 -22.576 -73.641  1.00  0.00     0.018 A 
HETATM    5  C6  UNK   900      25.893 -21.296 -72.659  1.00  0.00     0.110 A 
HETATM    6  C7  UNK   900      24.902 -21.554 -71.781  1.00  0.00     0.110 A 
ENDROOT
BRANCH   1   7
HETATM    7  C3  UNK   900      24.354 -22.678 -75.982  1.00  0.00     0.082 C 
HETATM    8  C8  UNK   900      23.012 -22.221 -76.530  1.00  0.00     0.023 C 
BRANCH   7   9
HETATM    9  C9  UNK   900      24.492 -24.186 -76.154  1.00  0.00     0.131 C 
HETATM   10  O5  UNK   900      25.578 -24.765 -76.119  1.00  0.00    -0.298 OA
HETATM   11  C10 UNK   900      23.209 -24.959 -76.323  1.00  0.00     0.091 C 
ENDBRANCH   7   9
ENDBRANCH   1   7
BRANCH   2  12
HETATM   12  O1  UNK   900      26.872 -22.577 -74.420  1.00  0.00    -0.384 OA
HETATM   13  H8  UNK   900      26.484 -23.430 -74.679  1.00  0.00     0.211 HD
ENDBRANCH   2  12
BRANCH   5  14
HETATM   14  O2  UNK   900      27.044 -20.647 -72.256  1.00  0.00    -0.355 OA
HETATM   15  C11 UNK   900      27.153 -19.386 -72.884  1.00  0.00     0.209 C 
ENDBRANCH   5  14
BRANCH   3  16
HETATM   16  O4  UNK   900      22.518 -21.386 -71.878  1.00  0.00    -0.385 OA
HETATM   17  H12 UNK   900      22.209 -20.989 -72.712  1.00  0.00     0.210 HD
ENDBRANCH   3  16
BRANCH   6  18
HETATM   18  O3  UNK   900      25.031 -21.211 -70.449  1.00  0.00    -0.355 OA
HETATM   19  C12 UNK   900      24.627 -19.874 -70.235  1.00  0.00     0.209 C 
ENDBRANCH   6  18
TORSDOF 6
ENDMDL
MODEL 7
REMARK VINA RESULT:      -5.0     31.808     33.264
REMARK  6 active torsions:
REMARK  status: ('A' for Active; 'I' for Inactive)
REMARK    1  A    between atoms: O1_1  and  C2_7 
REMARK    2  A    between atoms: O2_2  and  C6_11 
REMARK    3  A    between atoms: O3_3  and  C7_12 
REMARK    4  A    between atoms: O4_4  and  C4_9 
REMARK    5  A    between atoms: C1_6  and  C3_8 
REMARK    6  A    between atoms: C3_8  and  C9_14 
ROOT
HETATM    1  C1  UNK   900      24.676 -21.251 -72.836  1.00  0.00    -0.035 A 
HETATM    2  C2  UNK   900      23.579 -21.046 -73.855  1.00  0.00     0.207 A 
HETATM    3  C4  UNK   900      25.548 -23.264 -74.053  1.00  0.00     0.200 A 
HETATM    4  C5  UNK   900      25.561 -22.256 -72.943  1.00  0.00     0.018 A 
HETATM    5  C6  UNK   900      23.581 -22.034 -74.997  1.00  0.00     0.110 A 
HETATM    6  C7  UNK   900      24.473 -23.041 -75.085  1.00  0.00     0.110 A 
ENDROOT
BRANCH   1   7
HETATM    7  C3  UNK   900      24.748 -20.259 -71.710  1.00  0.00     0.082 C 
HETATM    8  C8  UNK   900      26.153 -19.701 -71.539  1.00  0.00     0.023 C 
BRANCH   7   9
HETATM    9  C9  UNK   900      24.304 -20.935 -70.420  1.00  0.00     0.131 C 
HETATM   10  O5  UNK   900      24.972 -21.803 -69.857  1.00  0.00    -0.298 OA
HETATM   11  C10 UNK   900      23.008 -20.448 -69.822  1.00  0.00     0.091 C 
ENDBRANCH   7   9
ENDBRANCH   1   7
BRANCH   2  12
HETATM   12  O1  UNK   900      22.325 -21.135 -73.176  1.00  0.00    -0.384 OA
HETATM   13  H8  UNK   900      21.987 -22.041 -73.279  1.00  0.00     0.211 HD
ENDBRANCH   2  12
BRANCH   5  14
HETATM   14  O2  UNK   900      22.624 -21.849 -75.976  1.00  0.00    -0.355 OA
HETATM   15  C11 UNK   900      22.845 -20.638 -76.670  1.00  0.00     0.209 C 
ENDBRANCH   5  14
BRANCH   3  16
HETATM   16  O4  UNK   900      26.826 -23.210 -74.686  1.00  0.00    -0.385 OA
HETATM   17  H12 UNK   900      26.706 -22.810 -75.565  1.00  0.00     0.210 HD
ENDBRANCH   3  16
BRANCH   6  18
HETATM   18  O3  UNK   900      24.426 -23.938 -76.135  1.00  0.00    -0.355 OA
HETATM   19  C12 UNK   900      23.392 -24.882 -75.940  1.00  0.00     0.209 C 
ENDBRANCH   6  18
TORSDOF 6
ENDMDL
MODEL 8
REMARK VINA RESULT:      -4.9      4.665      7.221
REMARK  6 active torsions:
REMARK  status: ('A' for Active; 'I' for Inactive)
REMARK    1  A    between atoms: O1_1  and  C2_7 
REMARK    2  A    between atoms: O2_2  and  C6_11 
REMARK    3  A    between atoms: O3_3  and  C7_12 
REMARK    4  A    between atoms: O4_4  and  C4_9 
REMARK    5  A    between atoms: C1_6  and  C3_8 
REMARK    6  A    between atoms: C3_8  and  C9_14 
ROOT
HETATM    1  C1  UNK   900      31.103 -47.149 -63.398  1.00  0.00    -0.035 A 
HETATM    2  C2  UNK   900      30.517 -46.640 -64.694  1.00  0.00     0.207 A 
HETATM    3  C4  UNK   900      33.266 -45.945 -63.804  1.00  0.00     0.200 A 
HETATM    4  C5  UNK   900      32.346 -46.822 -63.008  1.00  0.00     0.018 A 
HETATM    5  C6  UNK   900      31.421 -45.725 -65.483  1.00  0.00     0.110 A 
HETATM    6  C7  UNK   900      32.670 -45.412 -65.081  1.00  0.00     0.110 A 
ENDROOT
BRANCH   1   7
HETATM    7  C3  UNK   900      30.219 -48.019 -62.550  1.00  0.00     0.082 C 
HETATM    8  C8  UNK   900      30.182 -47.547 -61.105  1.00  0.00     0.023 C 
BRANCH   7   9
HETATM    9  C9  UNK   900      30.727 -49.454 -62.607  1.00  0.00     0.131 C 
HETATM   10  O5  UNK   900      30.987 -50.028 -63.666  1.00  0.00    -0.298 OA
HETATM   11  C10 UNK   900      30.950 -50.138 -61.282  1.00  0.00     0.091 C 
ENDBRANCH   7   9
ENDBRANCH   1   7
BRANCH   2  12
HETATM   12  O1  UNK   900      30.189 -47.770 -65.504  1.00  0.00    -0.384 OA
HETATM   13  H8  UNK   900      30.855 -47.841 -66.209  1.00  0.00     0.211 HD
ENDBRANCH   2  12
BRANCH   5  14
HETATM   14  O2  UNK   900      30.902 -45.198 -66.651  1.00  0.00    -0.355 OA
HETATM   15  C11 UNK   900      29.775 -44.390 -66.377  1.00  0.00     0.209 C 
ENDBRANCH   5  14
BRANCH   3  16
HETATM   16  O4  UNK   900      33.635 -44.851 -62.965  1.00  0.00    -0.385 OA
HETATM   17  H12 UNK   900      34.583 -44.939 -62.762  1.00  0.00     0.210 HD
ENDBRANCH   3  16
BRANCH   6  18
HETATM   18  O3  UNK   900      33.474 -44.589 -65.846  1.00  0.00    -0.355 OA
HETATM   19  C12 UNK   900      34.517 -45.329 -66.447  1.00  0.00     0.209 C 
ENDBRANCH   6  18
TORSDOF 6
ENDMDL
MODEL 9
REMARK VINA RESULT:      -4.9     25.320     27.399
REMARK  6 active torsions:
REMARK  status: ('A' for Active; 'I' for Inactive)
REMARK    1  A    between atoms: O1_1  and  C2_7 
REMARK    2  A    between atoms: O2_2  and  C6_11 
REMARK    3  A    between atoms: O3_3  and  C7_12 
REMARK    4  A    between atoms: O4_4  and  C4_9 
REMARK    5  A    between atoms: C1_6  and  C3_8 
REMARK    6  A    between atoms: C3_8  and  C9_14 
ROOT
HETATM    1  C1  UNK   900      23.986 -60.960 -37.362  1.00  0.00    -0.035 A 
HETATM    2  C2  UNK   900      23.073 -61.659 -36.382  1.00  0.00     0.207 A 
HETATM    3  C4  UNK   900      22.301 -61.164 -39.209  1.00  0.00     0.200 A 
HETATM    4  C5  UNK   900      23.620 -60.739 -38.636  1.00  0.00     0.018 A 
HETATM    5  C6  UNK   900      21.728 -62.055 -36.940  1.00  0.00     0.110 A 
HETATM    6  C7  UNK   900      21.379 -61.833 -38.224  1.00  0.00     0.110 A 
ENDROOT
BRANCH   1   7
HETATM    7  C3  UNK   900      25.316 -60.496 -36.838  1.00  0.00     0.082 C 
HETATM    8  C8  UNK   900      25.592 -59.046 -37.203  1.00  0.00     0.023 C 
BRANCH   7   9
HETATM    9  C9  UNK   900      26.414 -61.386 -37.405  1.00  0.00     0.131 C 
HETATM   10  O5  UNK   900      26.631 -62.525 -36.991  1.00  0.00    -0.298 OA
HETATM   11  C10 UNK   900      27.208 -60.817 -38.555  1.00  0.00     0.091 C 
ENDBRANCH   7   9
ENDBRANCH   1   7
BRANCH   2  12
HETATM   12  O1  UNK   900      23.741 -62.834 -35.919  1.00  0.00    -0.384 OA
HETATM   13  H8  UNK   900      23.092 -63.389 -35.454  1.00  0.00     0.211 HD
ENDBRANCH   2  12
BRANCH   5  14
HETATM   14  O2  UNK   900      20.845 -62.652 -36.061  1.00  0.00    -0.355 OA
HETATM   15  C11 UNK   900      20.438 -61.738 -35.063  1.00  0.00     0.209 C 
ENDBRANCH   5  14
BRANCH   3  16
HETATM   16  O4  UNK   900      21.669 -59.993 -39.724  1.00  0.00    -0.385 OA
HETATM   17  H12 UNK   900      21.548 -60.116 -40.682  1.00  0.00     0.210 HD
ENDBRANCH   3  16
BRANCH   6  18
HETATM   18  O3  UNK   900      20.145 -62.233 -38.701  1.00  0.00    -0.355 OA
HETATM   19  C12 UNK   900      19.184 -61.214 -38.518  1.00  0.00     0.209 C 
ENDBRANCH   6  18
TORSDOF 6
ENDMDL
