MODEL 1
REMARK VINA RESULT:      -5.0      0.000      0.000
REMARK  6 active torsions:
REMARK  status: ('A' for Active; 'I' for Inactive)
REMARK    1  A    between atoms: O3_3  and  C7_12 
REMARK    2  A    between atoms: O3_3  and  C8_13 
REMARK    3  A    between atoms: O4_4  and  C1_6 
REMARK    4  A    between atoms: O5_5  and  C2_7 
REMARK    5  A    between atoms: C1_6  and  C7_12 
REMARK    6  A    between atoms: C2_7  and  C8_13 
ROOT
HETATM    1  O3  UNK   900      23.320 -21.762 -72.862  1.00  0.00    -0.380 OA
ENDROOT
BRANCH   1   2
HETATM    2  C7  UNK   900      23.631 -21.722 -74.251  1.00  0.00     0.236 C 
BRANCH   2   3
HETATM    3  C1  UNK   900      22.834 -22.801 -74.967  1.00  0.00     0.183 C 
HETATM    4  O1  UNK   900      22.976 -22.648 -76.389  1.00  0.00    -0.353 OA
HETATM    5  C9  UNK   900      23.133 -23.947 -76.980  1.00  0.00     0.171 C 
HETATM    6  C5  UNK   900      22.902 -24.966 -75.886  1.00  0.00     0.032 C 
HETATM    7  C3  UNK   900      23.332 -24.206 -74.653  1.00  0.00     0.073 C 
BRANCH   3   8
HETATM    8  O4  UNK   900      21.459 -22.717 -74.592  1.00  0.00    -0.364 OA
HETATM    9  H17 UNK   900      21.273 -23.431 -73.959  1.00  0.00     0.213 HD
ENDBRANCH   3   8
ENDBRANCH   2   3
ENDBRANCH   1   2
BRANCH   1  10
HETATM   10  C8  UNK   900      24.488 -21.901 -72.070  1.00  0.00     0.236 C 
BRANCH  10  11
HETATM   11  C2  UNK   900      24.328 -21.055 -70.815  1.00  0.00     0.183 C 
HETATM   12  O2  UNK   900      24.989 -19.790 -70.993  1.00  0.00    -0.353 OA
HETATM   13  C10 UNK   900      24.162 -18.756 -70.441  1.00  0.00     0.171 C 
HETATM   14  C6  UNK   900      23.012 -19.435 -69.729  1.00  0.00     0.032 C 
HETATM   15  C4  UNK   900      22.873 -20.720 -70.512  1.00  0.00     0.073 C 
BRANCH  11  16
HETATM   16  O5  UNK   900      24.874 -21.747 -69.692  1.00  0.00    -0.364 OA
HETATM   17  H18 UNK   900      25.628 -22.288 -69.976  1.00  0.00     0.213 HD
ENDBRANCH  11  16
ENDBRANCH  10  11
ENDBRANCH   1  10
TORSDOF 6
ENDMDL
MODEL 2
REMARK VINA RESULT:      -5.0      2.491      5.656
REMARK  6 active torsions:
REMARK  status: ('A' for Active; 'I' for Inactive)
REMARK    1  A    between atoms: O3_3  and  C7_12 
REMARK    2  A    between atoms: O3_3  and  C8_13 
REMARK    3  A    between atoms: O4_4  and  C1_6 
REMARK    4  A    between atoms: O5_5  and  C2_7 
REMARK    5  A    between atoms: C1_6  and  C7_12 
REMARK    6  A    between atoms: C2_7  and  C8_13 
ROOT
HETATM    1  O3  UNK   900      24.996 -23.439 -73.618  1.00  0.00    -0.380 OA
ENDROOT
BRANCH   1   2
HETATM    2  C7  UNK   900      25.450 -22.594 -72.566  1.00  0.00     0.236 C 
BRANCH   2   3
HETATM    3  C1  UNK   900      26.060 -21.338 -73.168  1.00  0.00     0.183 C 
HETATM    4  O1  UNK   900      26.841 -20.652 -72.177  1.00  0.00    -0.353 OA
HETATM    5  C9  UNK   900      28.051 -20.180 -72.787  1.00  0.00     0.171 C 
HETATM    6  C5  UNK   900      27.930 -20.435 -74.273  1.00  0.00     0.032 C 
HETATM    7  C3  UNK   900      27.021 -21.640 -74.312  1.00  0.00     0.073 C 
BRANCH   3   8
HETATM    8  O4  UNK   900      25.026 -20.487 -73.663  1.00  0.00    -0.364 OA
HETATM    9  H17 UNK   900      25.167 -19.596 -73.302  1.00  0.00     0.213 HD
ENDBRANCH   3   8
ENDBRANCH   2   3
ENDBRANCH   1   2
BRANCH   1  10
HETATM   10  C8  UNK   900      23.615 -23.735 -73.492  1.00  0.00     0.236 C 
BRANCH  10  11
HETATM   11  C2  UNK   900      22.934 -23.459 -74.824  1.00  0.00     0.183 C 
HETATM   12  O2  UNK   900      23.586 -22.361 -75.486  1.00  0.00    -0.353 OA
HETATM   13  C10 UNK   900      23.700 -22.667 -76.883  1.00  0.00     0.171 C 
HETATM   14  C6  UNK   900      22.922 -23.942 -77.126  1.00  0.00     0.032 C 
HETATM   15  C4  UNK   900      23.029 -24.635 -75.787  1.00  0.00     0.073 C 
BRANCH  11  16
HETATM   16  O5  UNK   900      21.555 -23.162 -74.610  1.00  0.00    -0.364 OA
HETATM   17  H18 UNK   900      21.323 -23.332 -73.682  1.00  0.00     0.213 HD
ENDBRANCH  11  16
ENDBRANCH  10  11
ENDBRANCH   1  10
TORSDOF 6
ENDMDL
MODEL 3
REMARK VINA RESULT:      -4.9     24.565     26.261
REMARK  6 active torsions:
REMARK  status: ('A' for Active; 'I' for Inactive)
REMARK    1  A    between atoms: O3_3  and  C7_12 
REMARK    2  A    between atoms: O3_3  and  C8_13 
REMARK    3  A    between atoms: O4_4  and  C1_6 
REMARK    4  A    between atoms: O5_5  and  C2_7 
REMARK    5  A    between atoms: C1_6  and  C7_12 
REMARK    6  A    between atoms: C2_7  and  C8_13 
ROOT
HETATM    1  O3  UNK   900      35.501 -38.047 -56.304  1.00  0.00    -0.380 OA
ENDROOT
BRANCH   1   2
HETATM    2  C7  UNK   900      34.784 -39.183 -55.836  1.00  0.00     0.236 C 
BRANCH   2   3
HETATM    3  C1  UNK   900      35.664 -40.416 -55.976  1.00  0.00     0.183 C 
HETATM    4  O1  UNK   900      37.048 -40.036 -55.919  1.00  0.00    -0.353 OA
HETATM    5  C9  UNK   900      37.760 -40.996 -55.126  1.00  0.00     0.171 C 
HETATM    6  C5  UNK   900      36.797 -42.123 -54.821  1.00  0.00     0.032 C 
HETATM    7  C3  UNK   900      35.465 -41.413 -54.840  1.00  0.00     0.073 C 
BRANCH   3   8
HETATM    8  O4  UNK   900      35.378 -41.077 -57.209  1.00  0.00    -0.364 OA
HETATM    9  H17 UNK   900      35.075 -40.410 -57.847  1.00  0.00     0.213 HD
ENDBRANCH   3   8
ENDBRANCH   2   3
ENDBRANCH   1   2
BRANCH   1  10
HETATM   10  C8  UNK   900      34.958 -37.548 -57.515  1.00  0.00     0.236 C 
BRANCH  10  11
HETATM   11  C2  UNK   900      34.372 -36.169 -57.254  1.00  0.00     0.183 C 
HETATM   12  O2  UNK   900      35.430 -35.230 -56.997  1.00  0.00    -0.353 OA
HETATM   13  C10 UNK   900      35.129 -33.999 -57.670  1.00  0.00     0.171 C 
HETATM   14  C6  UNK   900      33.727 -34.126 -58.226  1.00  0.00     0.032 C 
HETATM   15  C4  UNK   900      33.614 -35.616 -58.454  1.00  0.00     0.073 C 
BRANCH  11  16
HETATM   16  O5  UNK   900      33.477 -36.225 -56.143  1.00  0.00    -0.364 OA
HETATM   17  H18 UNK   900      33.889 -36.720 -55.416  1.00  0.00     0.213 HD
ENDBRANCH  11  16
ENDBRANCH  10  11
ENDBRANCH   1  10
TORSDOF 6
ENDMDL
MODEL 4
REMARK VINA RESULT:      -4.8     43.644     45.102
REMARK  6 active torsions:
REMARK  status: ('A' for Active; 'I' for Inactive)
REMARK    1  A    between atoms: O3_3  and  C7_12 
REMARK    2  A    between atoms: O3_3  and  C8_13 
REMARK    3  A    between atoms: O4_4  and  C1_6 
REMARK    4  A    between atoms: O5_5  and  C2_7 
REMARK    5  A    between atoms: C1_6  and  C7_12 
REMARK    6  A    between atoms: C2_7  and  C8_13 
ROOT
HETATM    1  O3  UNK   900      41.287 -53.449 -45.233  1.00  0.00    -0.380 OA
ENDROOT
BRANCH   1   2
HETATM    2  C7  UNK   900      40.417 -54.576 -45.198  1.00  0.00     0.236 C 
BRANCH   2   3
HETATM    3  C1  UNK   900      41.024 -55.696 -46.029  1.00  0.00     0.183 C 
HETATM    4  O1  UNK   900      40.668 -55.526 -47.410  1.00  0.00    -0.353 OA
HETATM    5  C9  UNK   900      41.814 -55.819 -48.223  1.00  0.00     0.171 C 
HETATM    6  C5  UNK   900      42.883 -56.368 -47.304  1.00  0.00     0.032 C 
HETATM    7  C3  UNK   900      42.548 -55.695 -45.994  1.00  0.00     0.073 C 
BRANCH   3   8
HETATM    8  O4  UNK   900      40.565 -56.959 -45.547  1.00  0.00    -0.364 OA
HETATM    9  H17 UNK   900      41.336 -57.542 -45.441  1.00  0.00     0.213 HD
ENDBRANCH   3   8
ENDBRANCH   2   3
ENDBRANCH   1   2
BRANCH   1  10
HETATM   10  C8  UNK   900      40.639 -52.305 -45.763  1.00  0.00     0.236 C 
BRANCH  10  11
HETATM   11  C2  UNK   900      41.366 -51.876 -47.028  1.00  0.00     0.183 C 
HETATM   12  O2  UNK   900      41.187 -50.465 -47.238  1.00  0.00    -0.353 OA
HETATM   13  C10 UNK   900      42.433 -49.901 -47.674  1.00  0.00     0.171 C 
HETATM   14  C6  UNK   900      43.384 -51.053 -47.915  1.00  0.00     0.032 C 
HETATM   15  C4  UNK   900      42.872 -52.091 -46.943  1.00  0.00     0.073 C 
BRANCH  11  16
HETATM   16  O5  UNK   900      40.868 -52.611 -48.146  1.00  0.00    -0.364 OA
HETATM   17  H18 UNK   900      40.096 -53.134 -47.876  1.00  0.00     0.213 HD
ENDBRANCH  11  16
ENDBRANCH  10  11
ENDBRANCH   1  10
TORSDOF 6
ENDMDL
MODEL 5
REMARK VINA RESULT:      -4.7     47.567     49.014
REMARK  6 active torsions:
REMARK  status: ('A' for Active; 'I' for Inactive)
REMARK    1  A    between atoms: O3_3  and  C7_12 
REMARK    2  A    between atoms: O3_3  and  C8_13 
REMARK    3  A    between atoms: O4_4  and  C1_6 
REMARK    4  A    between atoms: O5_5  and  C2_7 
REMARK    5  A    between atoms: C1_6  and  C7_12 
REMARK    6  A    between atoms: C2_7  and  C8_13 
ROOT
HETATM    1  O3  UNK   900      38.075 -63.630 -50.774  1.00  0.00    -0.380 OA
ENDROOT
BRANCH   1   2
HETATM    2  C7  UNK   900      38.108 -62.230 -51.029  1.00  0.00     0.236 C 
BRANCH   2   3
HETATM    3  C1  UNK   900      38.861 -61.980 -52.326  1.00  0.00     0.183 C 
HETATM    4  O1  UNK   900      38.420 -60.746 -52.915  1.00  0.00    -0.353 OA
HETATM    5  C9  UNK   900      39.563 -60.044 -53.427  1.00  0.00     0.171 C 
HETATM    6  C5  UNK   900      40.750 -60.975 -53.302  1.00  0.00     0.032 C 
HETATM    7  C3  UNK   900      40.361 -61.822 -52.114  1.00  0.00     0.073 C 
BRANCH   3   8
HETATM    8  O4  UNK   900      38.646 -63.067 -53.227  1.00  0.00    -0.364 OA
HETATM    9  H17 UNK   900      39.059 -63.861 -52.848  1.00  0.00     0.213 HD
ENDBRANCH   3   8
ENDBRANCH   2   3
ENDBRANCH   1   2
BRANCH   1  10
HETATM   10  C8  UNK   900      36.863 -64.020 -50.151  1.00  0.00     0.236 C 
BRANCH  10  11
HETATM   11  C2  UNK   900      36.079 -64.895 -51.117  1.00  0.00     0.183 C 
HETATM   12  O2  UNK   900      36.886 -65.193 -52.269  1.00  0.00    -0.353 OA
HETATM   13  C10 UNK   900      36.693 -66.570 -52.625  1.00  0.00     0.171 C 
HETATM   14  C6  UNK   900      35.576 -67.104 -51.754  1.00  0.00     0.032 C 
HETATM   15  C4  UNK   900      35.705 -66.245 -50.517  1.00  0.00     0.073 C 
BRANCH  11  16
HETATM   16  O5  UNK   900      34.879 -64.229 -51.510  1.00  0.00    -0.364 OA
HETATM   17  H18 UNK   900      34.777 -64.280 -52.474  1.00  0.00     0.213 HD
ENDBRANCH  11  16
ENDBRANCH  10  11
ENDBRANCH   1  10
TORSDOF 6
ENDMDL
MODEL 6
REMARK VINA RESULT:      -4.5      2.271      3.141
REMARK  6 active torsions:
REMARK  status: ('A' for Active; 'I' for Inactive)
REMARK    1  A    between atoms: O3_3  and  C7_12 
REMARK    2  A    between atoms: O3_3  and  C8_13 
REMARK    3  A    between atoms: O4_4  and  C1_6 
REMARK    4  A    between atoms: O5_5  and  C2_7 
REMARK    5  A    between atoms: C1_6  and  C7_12 
REMARK    6  A    between atoms: C2_7  and  C8_13 
ROOT
HETATM    1  O3  UNK   900      23.965 -22.414 -72.552  1.00  0.00    -0.380 OA
ENDROOT
BRANCH   1   2
HETATM    2  C7  UNK   900      23.833 -23.604 -73.320  1.00  0.00     0.236 C 
BRANCH   2   3
HETATM    3  C1  UNK   900      23.173 -23.266 -74.648  1.00  0.00     0.183 C 
HETATM    4  O1  UNK   900      22.979 -21.846 -74.748  1.00  0.00    -0.353 OA
HETATM    5  C9  UNK   900      23.303 -21.428 -76.082  1.00  0.00     0.171 C 
HETATM    6  C5  UNK   900      23.541 -22.681 -76.896  1.00  0.00     0.032 C 
HETATM    7  C3  UNK   900      24.033 -23.649 -75.846  1.00  0.00     0.073 C 
BRANCH   3   8
HETATM    8  O4  UNK   900      21.923 -23.948 -74.755  1.00  0.00    -0.364 OA
HETATM    9  H17 UNK   900      22.105 -24.892 -74.904  1.00  0.00     0.213 HD
ENDBRANCH   3   8
ENDBRANCH   2   3
ENDBRANCH   1   2
BRANCH   1  10
HETATM   10  C8  UNK   900      25.287 -22.250 -72.065  1.00  0.00     0.236 C 
BRANCH  10  11
HETATM   11  C2  UNK   900      25.944 -21.103 -72.817  1.00  0.00     0.183 C 
HETATM   12  O2  UNK   900      26.865 -20.417 -71.952  1.00  0.00    -0.353 OA
HETATM   13  C10 UNK   900      28.051 -20.103 -72.696  1.00  0.00     0.171 C 
HETATM   14  C6  UNK   900      27.779 -20.458 -74.142  1.00  0.00     0.032 C 
HETATM   15  C4  UNK   900      26.771 -21.576 -74.005  1.00  0.00     0.073 C 
BRANCH  11  16
HETATM   16  O5  UNK   900      24.945 -20.202 -73.295  1.00  0.00    -0.364 OA
HETATM   17  H18 UNK   900      24.243 -20.699 -73.745  1.00  0.00     0.213 HD
ENDBRANCH  11  16
ENDBRANCH  10  11
ENDBRANCH   1  10
TORSDOF 6
ENDMDL
MODEL 7
REMARK VINA RESULT:      -4.4     30.776     33.105
REMARK  6 active torsions:
REMARK  status: ('A' for Active; 'I' for Inactive)
REMARK    1  A    between atoms: O3_3  and  C7_12 
REMARK    2  A    between atoms: O3_3  and  C8_13 
REMARK    3  A    between atoms: O4_4  and  C1_6 
REMARK    4  A    between atoms: O5_5  and  C2_7 
REMARK    5  A    between atoms: C1_6  and  C7_12 
REMARK    6  A    between atoms: C2_7  and  C8_13 
ROOT
HETATM    1  O3  UNK   900       9.707 -52.493 -73.792  1.00  0.00    -0.380 OA
ENDROOT
BRANCH   1   2
HETATM    2  C7  UNK   900       8.887 -53.196 -74.718  1.00  0.00     0.236 C 
BRANCH   2   3
HETATM    3  C1  UNK   900       9.454 -53.015 -76.118  1.00  0.00     0.183 C 
HETATM    4  O1  UNK   900      10.857 -53.321 -76.119  1.00  0.00    -0.353 OA
HETATM    5  C9  UNK   900      11.167 -54.068 -77.304  1.00  0.00     0.171 C 
HETATM    6  C5  UNK   900       9.923 -54.073 -78.166  1.00  0.00     0.032 C 
HETATM    7  C3  UNK   900       8.826 -53.962 -77.134  1.00  0.00     0.073 C 
BRANCH   3   8
HETATM    8  O4  UNK   900       9.236 -51.674 -76.559  1.00  0.00    -0.364 OA
HETATM    9  H17 UNK   900       8.511 -51.296 -76.032  1.00  0.00     0.213 HD
ENDBRANCH   3   8
ENDBRANCH   2   3
ENDBRANCH   1   2
BRANCH   1  10
HETATM   10  C8  UNK   900       8.939 -51.661 -72.940  1.00  0.00     0.236 C 
BRANCH  10  11
HETATM   11  C2  UNK   900       8.934 -50.251 -73.512  1.00  0.00     0.183 C 
HETATM   12  O2  UNK   900       7.821 -50.093 -74.409  1.00  0.00    -0.353 OA
HETATM   13  C10 UNK   900       7.234 -48.802 -74.193  1.00  0.00     0.171 C 
HETATM   14  C6  UNK   900       8.138 -48.054 -73.236  1.00  0.00     0.032 C 
HETATM   15  C4  UNK   900       8.754 -49.182 -72.441  1.00  0.00     0.073 C 
BRANCH  11  16
HETATM   16  O5  UNK   900      10.162 -50.001 -74.195  1.00  0.00    -0.364 OA
HETATM   17  H18 UNK   900      10.545 -50.841 -74.498  1.00  0.00     0.213 HD
ENDBRANCH  11  16
ENDBRANCH  10  11
ENDBRANCH   1  10
TORSDOF 6
ENDMDL
MODEL 8
REMARK VINA RESULT:      -4.4     26.139     27.953
REMARK  6 active torsions:
REMARK  status: ('A' for Active; 'I' for Inactive)
REMARK    1  A    between atoms: O3_3  and  C7_12 
REMARK    2  A    between atoms: O3_3  and  C8_13 
REMARK    3  A    between atoms: O4_4  and  C1_6 
REMARK    4  A    between atoms: O5_5  and  C2_7 
REMARK    5  A    between atoms: C1_6  and  C7_12 
REMARK    6  A    between atoms: C2_7  and  C8_13 
ROOT
HETATM    1  O3  UNK   900      37.349 -39.491 -58.166  1.00  0.00    -0.380 OA
ENDROOT
BRANCH   1   2
HETATM    2  C7  UNK   900      36.884 -38.614 -57.146  1.00  0.00     0.236 C 
BRANCH   2   3
HETATM    3  C1  UNK   900      36.651 -39.414 -55.874  1.00  0.00     0.183 C 
HETATM    4  O1  UNK   900      35.262 -39.764 -55.766  1.00  0.00    -0.353 OA
HETATM    5  C9  UNK   900      35.161 -41.117 -55.299  1.00  0.00     0.171 C 
HETATM    6  C5  UNK   900      36.558 -41.568 -54.933  1.00  0.00     0.032 C 
HETATM    7  C3  UNK   900      37.410 -40.735 -55.862  1.00  0.00     0.073 C 
BRANCH   3   8
HETATM    8  O4  UNK   900      37.062 -38.649 -54.740  1.00  0.00    -0.364 OA
HETATM    9  H17 UNK   900      37.929 -38.257 -54.937  1.00  0.00     0.213 HD
ENDBRANCH   3   8
ENDBRANCH   2   3
ENDBRANCH   1   2
BRANCH   1  10
HETATM   10  C8  UNK   900      36.411 -39.611 -59.222  1.00  0.00     0.236 C 
BRANCH  10  11
HETATM   11  C2  UNK   900      36.286 -41.079 -59.599  1.00  0.00     0.183 C 
HETATM   12  O2  UNK   900      35.888 -41.196 -60.976  1.00  0.00    -0.353 OA
HETATM   13  C10 UNK   900      36.634 -42.261 -61.583  1.00  0.00     0.171 C 
HETATM   14  C6  UNK   900      37.405 -42.952 -60.480  1.00  0.00     0.032 C 
HETATM   15  C4  UNK   900      37.607 -41.829 -59.488  1.00  0.00     0.073 C 
BRANCH  11  16
HETATM   16  O5  UNK   900      35.333 -41.718 -58.750  1.00  0.00    -0.364 OA
HETATM   17  H18 UNK   900      35.769 -42.412 -58.231  1.00  0.00     0.213 HD
ENDBRANCH  11  16
ENDBRANCH  10  11
ENDBRANCH   1  10
TORSDOF 6
ENDMDL
MODEL 9
REMARK VINA RESULT:      -4.3      1.450      5.766
REMARK  6 active torsions:
REMARK  status: ('A' for Active; 'I' for Inactive)
REMARK    1  A    between atoms: O3_3  and  C7_12 
REMARK    2  A    between atoms: O3_3  and  C8_13 
REMARK    3  A    between atoms: O4_4  and  C1_6 
REMARK    4  A    between atoms: O5_5  and  C2_7 
REMARK    5  A    between atoms: C1_6  and  C7_12 
REMARK    6  A    between atoms: C2_7  and  C8_13 
ROOT
HETATM    1  O3  UNK   900      22.889 -20.506 -74.245  1.00  0.00    -0.380 OA
ENDROOT
BRANCH   1   2
HETATM    2  C7  UNK   900      23.704 -19.440 -73.772  1.00  0.00     0.236 C 
BRANCH   2   3
HETATM    3  C1  UNK   900      23.822 -19.541 -72.259  1.00  0.00     0.183 C 
HETATM    4  O1  UNK   900      22.614 -20.093 -71.712  1.00  0.00    -0.353 OA
HETATM    5  C9  UNK   900      22.958 -21.026 -70.678  1.00  0.00     0.171 C 
HETATM    6  C5  UNK   900      24.451 -20.915 -70.457  1.00  0.00     0.032 C 
HETATM    7  C3  UNK   900      24.939 -20.479 -71.818  1.00  0.00     0.073 C 
BRANCH   3   8
HETATM    8  O4  UNK   900      24.075 -18.249 -71.706  1.00  0.00    -0.364 OA
HETATM    9  H17 UNK   900      24.964 -18.257 -71.311  1.00  0.00     0.213 HD
ENDBRANCH   3   8
ENDBRANCH   2   3
ENDBRANCH   1   2
BRANCH   1  10
HETATM   10  C8  UNK   900      23.591 -21.337 -75.155  1.00  0.00     0.236 C 
BRANCH  10  11
HETATM   11  C2  UNK   900      22.818 -22.636 -75.323  1.00  0.00     0.183 C 
HETATM   12  O2  UNK   900      22.777 -23.002 -76.713  1.00  0.00    -0.353 OA
HETATM   13  C10 UNK   900      22.983 -24.418 -76.825  1.00  0.00     0.171 C 
HETATM   14  C6  UNK   900      22.977 -24.982 -75.420  1.00  0.00     0.032 C 
HETATM   15  C4  UNK   900      23.478 -23.809 -74.609  1.00  0.00     0.073 C 
BRANCH  11  16
HETATM   16  O5  UNK   900      21.495 -22.483 -74.810  1.00  0.00    -0.364 OA
HETATM   17  H18 UNK   900      21.533 -22.129 -73.907  1.00  0.00     0.213 HD
ENDBRANCH  11  16
ENDBRANCH  10  11
ENDBRANCH   1  10
TORSDOF 6
ENDMDL
