MODEL 1
REMARK VINA RESULT:      -7.1      0.000      0.000
REMARK  6 active torsions:
REMARK  status: ('A' for Active; 'I' for Inactive)
REMARK    1  A    between atoms: O2_2  and  C1_8 
REMARK    2  A    between atoms: O3_3  and  C3_10 
REMARK    3  A    between atoms: O4_4  and  C5_12 
REMARK    4  A    between atoms: O6_6  and  C10_17 
REMARK    5  A    between atoms: N1_7  and  C2_9 
REMARK       I    between atoms: N1_7  and  C7_14 
REMARK    6  A    between atoms: C7_14  and  C8_15 
ROOT
HETATM    1  O5  UNK   900      33.722 -49.776 -62.725  1.00  0.00    -0.268 OA
HETATM    2  N1  UNK   900      33.440 -48.657 -60.714  1.00  0.00    -0.347 N 
HETATM    3  C7  UNK   900      33.794 -49.743 -61.500  1.00  0.00     0.255 C 
HETATM    4  H9  UNK   900      33.545 -48.718 -59.706  1.00  0.00     0.163 HD
ENDROOT
BRANCH   2   5
HETATM    5  C2  UNK   900      32.939 -47.425 -61.275  1.00  0.00     0.145 C 
HETATM    6  C1  UNK   900      31.422 -47.244 -61.043  1.00  0.00     0.107 C 
HETATM    7  C3  UNK   900      31.018 -45.858 -61.590  1.00  0.00     0.209 C 
HETATM    8  C6  UNK   900      30.594 -48.355 -61.697  1.00  0.00     0.051 C 
HETATM    9  C5  UNK   900      31.903 -44.730 -61.039  1.00  0.00     0.288 C 
HETATM   10  O1  UNK   900      33.283 -45.003 -61.293  1.00  0.00    -0.357 OA
HETATM   11  C4  UNK   900      33.728 -46.233 -60.722  1.00  0.00     0.199 C 
BRANCH   6  12
HETATM   12  O2  UNK   900      31.151 -47.272 -59.637  1.00  0.00    -0.385 OA
HETATM   13  H10 UNK   900      31.366 -48.161 -59.309  1.00  0.00     0.210 HD
ENDBRANCH   6  12
BRANCH   7  14
HETATM   14  O3  UNK   900      29.649 -45.586 -61.311  1.00  0.00    -0.388 OA
HETATM   15  H11 UNK   900      29.117 -46.039 -61.986  1.00  0.00     0.210 HD
ENDBRANCH   7  14
BRANCH   9  16
HETATM   16  O4  UNK   900      31.652 -44.453 -59.663  1.00  0.00    -0.369 OA
HETATM   17  H12 UNK   900      32.493 -44.165 -59.270  1.00  0.00     0.212 HD
ENDBRANCH   9  16
ENDBRANCH   2   5
BRANCH   3  18
HETATM   18  C8  UNK   900      34.266 -50.947 -60.767  1.00  0.00     0.071 A 
HETATM   19  C9  UNK   900      35.592 -51.364 -60.885  1.00  0.00    -0.043 A 
HETATM   20  C12 UNK   900      36.031 -52.494 -60.195  1.00  0.00     0.008 A 
HETATM   21  C13 UNK   900      36.564 -50.620 -61.742  1.00  0.00     0.049 C 
HETATM   22  C14 UNK   900      35.145 -53.207 -59.388  1.00  0.00     0.010 A 
HETATM   23  C11 UNK   900      33.819 -52.790 -59.270  1.00  0.00    -0.028 A 
HETATM   24  C10 UNK   900      33.379 -51.660 -59.960  1.00  0.00     0.087 A 
HETATM   25  C15 UNK   900      32.886 -53.569 -58.402  1.00  0.00     0.051 C 
BRANCH  24  26
HETATM   26  O6  UNK   900      32.082 -51.257 -59.842  1.00  0.00    -0.359 OA
HETATM   27  H21 UNK   900      32.017 -50.376 -59.443  1.00  0.00     0.217 HD
ENDBRANCH  24  26
ENDBRANCH   3  18
TORSDOF 6
ENDMDL
MODEL 2
REMARK VINA RESULT:      -6.7     21.507     23.973
REMARK  6 active torsions:
REMARK  status: ('A' for Active; 'I' for Inactive)
REMARK    1  A    between atoms: O2_2  and  C1_8 
REMARK    2  A    between atoms: O3_3  and  C3_10 
REMARK    3  A    between atoms: O4_4  and  C5_12 
REMARK    4  A    between atoms: O6_6  and  C10_17 
REMARK    5  A    between atoms: N1_7  and  C2_9 
REMARK       I    between atoms: N1_7  and  C7_14 
REMARK    6  A    between atoms: C7_14  and  C8_15 
ROOT
HETATM    1  O5  UNK   900      16.205 -65.741 -68.458  1.00  0.00    -0.268 OA
HETATM    2  N1  UNK   900      16.956 -64.631 -66.566  1.00  0.00    -0.347 N 
HETATM    3  C7  UNK   900      16.096 -64.838 -67.634  1.00  0.00     0.255 C 
HETATM    4  H9  UNK   900      16.778 -63.861 -65.927  1.00  0.00     0.163 HD
ENDROOT
BRANCH   2   5
HETATM    5  C2  UNK   900      18.094 -65.480 -66.311  1.00  0.00     0.145 C 
HETATM    6  C1  UNK   900      19.437 -64.735 -66.482  1.00  0.00     0.107 C 
HETATM    7  C3  UNK   900      20.574 -65.703 -66.090  1.00  0.00     0.209 C 
HETATM    8  C6  UNK   900      19.634 -64.205 -67.907  1.00  0.00     0.051 C 
HETATM    9  C5  UNK   900      20.351 -66.339 -64.710  1.00  0.00     0.288 C 
HETATM   10  O1  UNK   900      19.078 -66.988 -64.655  1.00  0.00    -0.357 OA
HETATM   11  C4  UNK   900      17.986 -66.107 -64.918  1.00  0.00     0.199 C 
BRANCH   6  12
HETATM   12  O2  UNK   900      19.472 -63.612 -65.594  1.00  0.00    -0.385 OA
HETATM   13  H10 UNK   900      18.988 -62.883 -66.015  1.00  0.00     0.210 HD
ENDBRANCH   6  12
BRANCH   7  14
HETATM   14  O3  UNK   900      21.834 -65.042 -66.126  1.00  0.00    -0.388 OA
HETATM   15  H11 UNK   900      22.524 -65.726 -66.128  1.00  0.00     0.210 HD
ENDBRANCH   7  14
BRANCH   9  16
HETATM   16  O4  UNK   900      20.532 -65.416 -63.639  1.00  0.00    -0.369 OA
HETATM   17  H12 UNK   900      19.730 -65.449 -63.092  1.00  0.00     0.212 HD
ENDBRANCH   9  16
ENDBRANCH   2   5
BRANCH   3  18
HETATM   18  C8  UNK   900      14.987 -63.858 -67.773  1.00  0.00     0.071 A 
HETATM   19  C9  UNK   900      15.079 -62.822 -68.703  1.00  0.00    -0.043 A 
HETATM   20  C12 UNK   900      14.036 -61.906 -68.832  1.00  0.00     0.008 A 
HETATM   21  C13 UNK   900      16.284 -62.668 -69.573  1.00  0.00     0.049 C 
HETATM   22  C14 UNK   900      12.900 -62.026 -68.031  1.00  0.00     0.010 A 
HETATM   23  C11 UNK   900      12.806 -63.062 -67.102  1.00  0.00    -0.028 A 
HETATM   24  C10 UNK   900      13.850 -63.979 -66.973  1.00  0.00     0.087 A 
HETATM   25  C15 UNK   900      11.582 -63.172 -66.255  1.00  0.00     0.051 C 
BRANCH  24  26
HETATM   26  O6  UNK   900      13.755 -64.990 -66.063  1.00  0.00    -0.359 OA
HETATM   27  H21 UNK   900      13.793 -65.859 -66.491  1.00  0.00     0.217 HD
ENDBRANCH  24  26
ENDBRANCH   3  18
TORSDOF 6
ENDMDL
MODEL 3
REMARK VINA RESULT:      -6.6      2.927      6.928
REMARK  6 active torsions:
REMARK  status: ('A' for Active; 'I' for Inactive)
REMARK    1  A    between atoms: O2_2  and  C1_8 
REMARK    2  A    between atoms: O3_3  and  C3_10 
REMARK    3  A    between atoms: O4_4  and  C5_12 
REMARK    4  A    between atoms: O6_6  and  C10_17 
REMARK    5  A    between atoms: N1_7  and  C2_9 
REMARK       I    between atoms: N1_7  and  C7_14 
REMARK    6  A    between atoms: C7_14  and  C8_15 
ROOT
HETATM    1  O5  UNK   900      31.076 -45.645 -61.700  1.00  0.00    -0.268 OA
HETATM    2  N1  UNK   900      31.933 -47.561 -62.687  1.00  0.00    -0.347 N 
HETATM    3  C7  UNK   900      31.273 -46.341 -62.693  1.00  0.00     0.255 C 
HETATM    4  H9  UNK   900      32.059 -48.061 -63.562  1.00  0.00     0.163 HD
ENDROOT
BRANCH   2   5
HETATM    5  C2  UNK   900      32.467 -48.148 -61.482  1.00  0.00     0.145 C 
HETATM    6  C1  UNK   900      31.815 -49.508 -61.148  1.00  0.00     0.107 C 
HETATM    7  C3  UNK   900      32.528 -50.088 -59.907  1.00  0.00     0.209 C 
HETATM    8  C6  UNK   900      30.305 -49.390 -60.909  1.00  0.00     0.051 C 
HETATM    9  C5  UNK   900      34.054 -50.118 -60.070  1.00  0.00     0.288 C 
HETATM   10  O1  UNK   900      34.551 -48.816 -60.391  1.00  0.00    -0.357 OA
HETATM   11  C4  UNK   900      33.990 -48.278 -61.587  1.00  0.00     0.199 C 
BRANCH   6  12
HETATM   12  O2  UNK   900      32.010 -50.409 -62.244  1.00  0.00    -0.385 OA
HETATM   13  H10 UNK   900      31.320 -51.091 -62.197  1.00  0.00     0.210 HD
ENDBRANCH   6  12
BRANCH   7  14
HETATM   14  O3  UNK   900      32.042 -51.393 -59.611  1.00  0.00    -0.388 OA
HETATM   15  H11 UNK   900      31.273 -51.556 -60.182  1.00  0.00     0.210 HD
ENDBRANCH   7  14
BRANCH   9  16
HETATM   16  O4  UNK   900      34.493 -51.106 -60.999  1.00  0.00    -0.369 OA
HETATM   17  H12 UNK   900      35.429 -51.283 -60.810  1.00  0.00     0.212 HD
ENDBRANCH   9  16
ENDBRANCH   2   5
BRANCH   3  18
HETATM   18  C8  UNK   900      30.758 -45.887 -64.011  1.00  0.00     0.071 A 
HETATM   19  C9  UNK   900      31.353 -44.805 -64.661  1.00  0.00    -0.043 A 
HETATM   20  C12 UNK   900      30.868 -44.383 -65.898  1.00  0.00     0.008 A 
HETATM   21  C13 UNK   900      32.510 -44.080 -64.055  1.00  0.00     0.049 C 
HETATM   22  C14 UNK   900      29.788 -45.043 -66.486  1.00  0.00     0.010 A 
HETATM   23  C11 UNK   900      29.194 -46.125 -65.837  1.00  0.00    -0.028 A 
HETATM   24  C10 UNK   900      29.679 -46.548 -64.599  1.00  0.00     0.087 A 
HETATM   25  C15 UNK   900      28.039 -46.816 -66.483  1.00  0.00     0.051 C 
BRANCH  24  26
HETATM   26  O6  UNK   900      29.094 -47.605 -63.967  1.00  0.00    -0.359 OA
HETATM   27  H21 UNK   900      29.667 -47.966 -63.273  1.00  0.00     0.217 HD
ENDBRANCH  24  26
ENDBRANCH   3  18
TORSDOF 6
ENDMDL
MODEL 4
REMARK VINA RESULT:      -6.5      3.240      6.841
REMARK  6 active torsions:
REMARK  status: ('A' for Active; 'I' for Inactive)
REMARK    1  A    between atoms: O2_2  and  C1_8 
REMARK    2  A    between atoms: O3_3  and  C3_10 
REMARK    3  A    between atoms: O4_4  and  C5_12 
REMARK    4  A    between atoms: O6_6  and  C10_17 
REMARK    5  A    between atoms: N1_7  and  C2_9 
REMARK       I    between atoms: N1_7  and  C7_14 
REMARK    6  A    between atoms: C7_14  and  C8_15 
ROOT
HETATM    1  O5  UNK   900      33.316 -47.728 -64.720  1.00  0.00    -0.268 OA
HETATM    2  N1  UNK   900      32.003 -47.425 -62.833  1.00  0.00    -0.347 N 
HETATM    3  C7  UNK   900      32.338 -47.235 -64.165  1.00  0.00     0.255 C 
HETATM    4  H9  UNK   900      31.165 -46.984 -62.464  1.00  0.00     0.163 HD
ENDROOT
BRANCH   2   5
HETATM    5  C2  UNK   900      32.793 -48.243 -61.944  1.00  0.00     0.145 C 
HETATM    6  C1  UNK   900      32.650 -47.816 -60.466  1.00  0.00     0.107 C 
HETATM    7  C3  UNK   900      33.450 -48.814 -59.601  1.00  0.00     0.209 C 
HETATM    8  C6  UNK   900      33.123 -46.378 -60.224  1.00  0.00     0.051 C 
HETATM    9  C5  UNK   900      33.079 -50.274 -59.899  1.00  0.00     0.288 C 
HETATM   10  O1  UNK   900      33.232 -50.558 -61.291  1.00  0.00    -0.357 OA
HETATM   11  C4  UNK   900      32.435 -49.721 -62.128  1.00  0.00     0.199 C 
BRANCH   6  12
HETATM   12  O2  UNK   900      31.272 -47.889 -60.082  1.00  0.00    -0.385 OA
HETATM   13  H10 UNK   900      31.099 -47.170 -59.452  1.00  0.00     0.210 HD
ENDBRANCH   6  12
BRANCH   7  14
HETATM   14  O3  UNK   900      33.273 -48.537 -58.217  1.00  0.00    -0.388 OA
HETATM   15  H11 UNK   900      32.561 -49.112 -57.891  1.00  0.00     0.210 HD
ENDBRANCH   7  14
BRANCH   9  16
HETATM   16  O4  UNK   900      31.785 -50.626 -59.416  1.00  0.00    -0.369 OA
HETATM   17  H12 UNK   900      31.308 -49.797 -59.242  1.00  0.00     0.212 HD
ENDBRANCH   9  16
ENDBRANCH   2   5
BRANCH   3  18
HETATM   18  C8  UNK   900      31.437 -46.342 -64.940  1.00  0.00     0.071 A 
HETATM   19  C9  UNK   900      31.874 -45.077 -65.335  1.00  0.00    -0.043 A 
HETATM   20  C12 UNK   900      31.026 -44.243 -66.063  1.00  0.00     0.008 A 
HETATM   21  C13 UNK   900      33.244 -44.590 -64.993  1.00  0.00     0.049 C 
HETATM   22  C14 UNK   900      29.741 -44.673 -66.396  1.00  0.00     0.010 A 
HETATM   23  C11 UNK   900      29.304 -45.938 -66.001  1.00  0.00    -0.028 A 
HETATM   24  C10 UNK   900      30.152 -46.773 -65.273  1.00  0.00     0.087 A 
HETATM   25  C15 UNK   900      27.925 -46.378 -66.366  1.00  0.00     0.051 C 
BRANCH  24  26
HETATM   26  O6  UNK   900      29.720 -48.007 -64.888  1.00  0.00    -0.359 OA
HETATM   27  H21 UNK   900      30.120 -48.278 -64.047  1.00  0.00     0.217 HD
ENDBRANCH  24  26
ENDBRANCH   3  18
TORSDOF 6
ENDMDL
MODEL 5
REMARK VINA RESULT:      -6.3      3.178      4.803
REMARK  6 active torsions:
REMARK  status: ('A' for Active; 'I' for Inactive)
REMARK    1  A    between atoms: O2_2  and  C1_8 
REMARK    2  A    between atoms: O3_3  and  C3_10 
REMARK    3  A    between atoms: O4_4  and  C5_12 
REMARK    4  A    between atoms: O6_6  and  C10_17 
REMARK    5  A    between atoms: N1_7  and  C2_9 
REMARK       I    between atoms: N1_7  and  C7_14 
REMARK    6  A    between atoms: C7_14  and  C8_15 
ROOT
HETATM    1  O5  UNK   900      31.130 -49.213 -64.197  1.00  0.00    -0.268 OA
HETATM    2  N1  UNK   900      30.867 -47.419 -62.750  1.00  0.00    -0.347 N 
HETATM    3  C7  UNK   900      31.217 -48.721 -63.075  1.00  0.00     0.255 C 
HETATM    4  H9  UNK   900      30.986 -47.097 -61.794  1.00  0.00     0.163 HD
ENDROOT
BRANCH   2   5
HETATM    5  C2  UNK   900      30.354 -46.488 -63.726  1.00  0.00     0.145 C 
HETATM    6  C1  UNK   900      31.474 -45.841 -64.571  1.00  0.00     0.107 C 
HETATM    7  C3  UNK   900      30.810 -44.948 -65.641  1.00  0.00     0.209 C 
HETATM    8  C6  UNK   900      32.458 -45.034 -63.716  1.00  0.00     0.051 C 
HETATM    9  C5  UNK   900      29.736 -45.696 -66.444  1.00  0.00     0.288 C 
HETATM   10  O1  UNK   900      28.761 -46.267 -65.569  1.00  0.00    -0.357 OA
HETATM   11  C4  UNK   900      29.318 -47.177 -64.620  1.00  0.00     0.199 C 
BRANCH   6  12
HETATM   12  O2  UNK   900      32.219 -46.867 -65.237  1.00  0.00    -0.385 OA
HETATM   13  H10 UNK   900      31.856 -47.725 -64.962  1.00  0.00     0.210 HD
ENDBRANCH   6  12
BRANCH   7  14
HETATM   14  O3  UNK   900      31.787 -44.403 -66.521  1.00  0.00    -0.388 OA
HETATM   15  H11 UNK   900      31.323 -44.073 -67.307  1.00  0.00     0.210 HD
ENDBRANCH   7  14
BRANCH   9  16
HETATM   16  O4  UNK   900      30.286 -46.660 -67.339  1.00  0.00    -0.369 OA
HETATM   17  H12 UNK   900      30.424 -46.214 -68.192  1.00  0.00     0.212 HD
ENDBRANCH   9  16
ENDBRANCH   2   5
BRANCH   3  18
HETATM   18  C8  UNK   900      31.704 -49.562 -61.950  1.00  0.00     0.071 A 
HETATM   19  C9  UNK   900      30.803 -50.073 -61.015  1.00  0.00    -0.043 A 
HETATM   20  C12 UNK   900      31.265 -50.862 -59.962  1.00  0.00     0.008 A 
HETATM   21  C13 UNK   900      29.340 -49.791 -61.117  1.00  0.00     0.049 C 
HETATM   22  C14 UNK   900      32.627 -51.140 -59.843  1.00  0.00     0.010 A 
HETATM   23  C11 UNK   900      33.527 -50.630 -60.778  1.00  0.00    -0.028 A 
HETATM   24  C10 UNK   900      33.066 -49.841 -61.832  1.00  0.00     0.087 A 
HETATM   25  C15 UNK   900      34.981 -50.939 -60.632  1.00  0.00     0.051 C 
BRANCH  24  26
HETATM   26  O6  UNK   900      33.951 -49.343 -62.742  1.00  0.00    -0.359 OA
HETATM   27  H21 UNK   900      34.832 -49.730 -62.630  1.00  0.00     0.217 HD
ENDBRANCH  24  26
ENDBRANCH   3  18
TORSDOF 6
ENDMDL
MODEL 6
REMARK VINA RESULT:      -6.2      4.202      8.285
REMARK  6 active torsions:
REMARK  status: ('A' for Active; 'I' for Inactive)
REMARK    1  A    between atoms: O2_2  and  C1_8 
REMARK    2  A    between atoms: O3_3  and  C3_10 
REMARK    3  A    between atoms: O4_4  and  C5_12 
REMARK    4  A    between atoms: O6_6  and  C10_17 
REMARK    5  A    between atoms: N1_7  and  C2_9 
REMARK       I    between atoms: N1_7  and  C7_14 
REMARK    6  A    between atoms: C7_14  and  C8_15 
ROOT
HETATM    1  O5  UNK   900      32.393 -43.679 -62.601  1.00  0.00    -0.268 OA
HETATM    2  N1  UNK   900      33.191 -45.319 -64.034  1.00  0.00    -0.347 N 
HETATM    3  C7  UNK   900      32.940 -44.011 -63.650  1.00  0.00     0.255 C 
HETATM    4  H9  UNK   900      33.662 -45.496 -64.917  1.00  0.00     0.163 HD
ENDROOT
BRANCH   2   5
HETATM    5  C2  UNK   900      32.825 -46.451 -63.217  1.00  0.00     0.145 C 
HETATM    6  C1  UNK   900      32.375 -47.666 -64.059  1.00  0.00     0.107 C 
HETATM    7  C3  UNK   900      32.106 -48.842 -63.095  1.00  0.00     0.209 C 
HETATM    8  C6  UNK   900      31.138 -47.361 -64.911  1.00  0.00     0.051 C 
HETATM    9  C5  UNK   900      33.286 -49.104 -62.148  1.00  0.00     0.288 C 
HETATM   10  O1  UNK   900      33.629 -47.916 -61.431  1.00  0.00    -0.357 OA
HETATM   11  C4  UNK   900      33.979 -46.825 -62.282  1.00  0.00     0.199 C 
BRANCH   6  12
HETATM   12  O2  UNK   900      33.431 -48.043 -64.949  1.00  0.00    -0.385 OA
HETATM   13  H10 UNK   900      33.611 -47.290 -65.536  1.00  0.00     0.210 HD
ENDBRANCH   6  12
BRANCH   7  14
HETATM   14  O3  UNK   900      31.788 -50.025 -63.819  1.00  0.00    -0.388 OA
HETATM   15  H11 UNK   900      31.325 -50.625 -63.212  1.00  0.00     0.210 HD
ENDBRANCH   7  14
BRANCH   9  16
HETATM   16  O4  UNK   900      34.410 -49.677 -62.811  1.00  0.00    -0.369 OA
HETATM   17  H12 UNK   900      35.206 -49.368 -62.347  1.00  0.00     0.212 HD
ENDBRANCH   9  16
ENDBRANCH   2   5
BRANCH   3  18
HETATM   18  C8  UNK   900      33.355 -42.960 -64.615  1.00  0.00     0.071 A 
HETATM   19  C9  UNK   900      34.688 -42.554 -64.679  1.00  0.00    -0.043 A 
HETATM   20  C12 UNK   900      35.074 -41.568 -65.587  1.00  0.00     0.008 A 
HETATM   21  C13 UNK   900      35.724 -43.155 -63.787  1.00  0.00     0.049 C 
HETATM   22  C14 UNK   900      34.127 -40.988 -66.432  1.00  0.00     0.010 A 
HETATM   23  C11 UNK   900      32.794 -41.395 -66.369  1.00  0.00    -0.028 A 
HETATM   24  C10 UNK   900      32.408 -42.382 -65.460  1.00  0.00     0.087 A 
HETATM   25  C15 UNK   900      31.796 -40.762 -67.281  1.00  0.00     0.051 C 
BRANCH  24  26
HETATM   26  O6  UNK   900      31.103 -42.775 -65.401  1.00  0.00    -0.359 OA
HETATM   27  H21 UNK   900      30.521 -42.145 -65.854  1.00  0.00     0.217 HD
ENDBRANCH  24  26
ENDBRANCH   3  18
TORSDOF 6
ENDMDL
MODEL 7
REMARK VINA RESULT:      -6.1      2.415      3.807
REMARK  6 active torsions:
REMARK  status: ('A' for Active; 'I' for Inactive)
REMARK    1  A    between atoms: O2_2  and  C1_8 
REMARK    2  A    between atoms: O3_3  and  C3_10 
REMARK    3  A    between atoms: O4_4  and  C5_12 
REMARK    4  A    between atoms: O6_6  and  C10_17 
REMARK    5  A    between atoms: N1_7  and  C2_9 
REMARK       I    between atoms: N1_7  and  C7_14 
REMARK    6  A    between atoms: C7_14  and  C8_15 
ROOT
HETATM    1  O5  UNK   900      33.858 -48.114 -63.743  1.00  0.00    -0.268 OA
HETATM    2  N1  UNK   900      33.481 -46.585 -62.040  1.00  0.00    -0.347 N 
HETATM    3  C7  UNK   900      33.411 -47.837 -62.633  1.00  0.00     0.255 C 
HETATM    4  H9  UNK   900      33.092 -46.453 -61.111  1.00  0.00     0.163 HD
ENDROOT
BRANCH   2   5
HETATM    5  C2  UNK   900      34.103 -45.455 -62.687  1.00  0.00     0.145 C 
HETATM    6  C1  UNK   900      33.118 -44.284 -62.905  1.00  0.00     0.107 C 
HETATM    7  C3  UNK   900      33.909 -43.101 -63.505  1.00  0.00     0.209 C 
HETATM    8  C6  UNK   900      31.940 -44.671 -63.806  1.00  0.00     0.051 C 
HETATM    9  C5  UNK   900      35.162 -42.758 -62.686  1.00  0.00     0.288 C 
HETATM   10  O1  UNK   900      35.993 -43.911 -62.532  1.00  0.00    -0.357 OA
HETATM   11  C4  UNK   900      35.332 -45.001 -61.892  1.00  0.00     0.199 C 
BRANCH   6  12
HETATM   12  O2  UNK   900      32.582 -43.874 -61.642  1.00  0.00    -0.385 OA
HETATM   13  H10 UNK   900      33.308 -43.498 -61.117  1.00  0.00     0.210 HD
ENDBRANCH   6  12
BRANCH   7  14
HETATM   14  O3  UNK   900      33.078 -41.952 -63.633  1.00  0.00    -0.388 OA
HETATM   15  H11 UNK   900      32.703 -41.764 -62.757  1.00  0.00     0.210 HD
ENDBRANCH   7  14
BRANCH   9  16
HETATM   16  O4  UNK   900      34.854 -42.144 -61.436  1.00  0.00    -0.369 OA
HETATM   17  H12 UNK   900      34.849 -41.184 -61.582  1.00  0.00     0.212 HD
ENDBRANCH   9  16
ENDBRANCH   2   5
BRANCH   3  18
HETATM   18  C8  UNK   900      32.714 -48.889 -61.848  1.00  0.00     0.071 A 
HETATM   19  C9  UNK   900      33.450 -49.846 -61.150  1.00  0.00    -0.043 A 
HETATM   20  C12 UNK   900      32.792 -50.831 -60.414  1.00  0.00     0.008 A 
HETATM   21  C13 UNK   900      34.944 -49.842 -61.173  1.00  0.00     0.049 C 
HETATM   22  C14 UNK   900      31.398 -50.859 -60.376  1.00  0.00     0.010 A 
HETATM   23  C11 UNK   900      30.661 -49.901 -61.073  1.00  0.00    -0.028 A 
HETATM   24  C10 UNK   900      31.319 -48.916 -61.809  1.00  0.00     0.087 A 
HETATM   25  C15 UNK   900      29.170 -49.949 -61.020  1.00  0.00     0.051 C 
BRANCH  24  26
HETATM   26  O6  UNK   900      30.595 -47.982 -62.491  1.00  0.00    -0.359 OA
HETATM   27  H21 UNK   900      30.718 -47.096 -62.119  1.00  0.00     0.217 HD
ENDBRANCH  24  26
ENDBRANCH   3  18
TORSDOF 6
ENDMDL
MODEL 8
REMARK VINA RESULT:      -6.1     24.578     27.088
REMARK  6 active torsions:
REMARK  status: ('A' for Active; 'I' for Inactive)
REMARK    1  A    between atoms: O2_2  and  C1_8 
REMARK    2  A    between atoms: O3_3  and  C3_10 
REMARK    3  A    between atoms: O4_4  and  C5_12 
REMARK    4  A    between atoms: O6_6  and  C10_17 
REMARK    5  A    between atoms: N1_7  and  C2_9 
REMARK       I    between atoms: N1_7  and  C7_14 
REMARK    6  A    between atoms: C7_14  and  C8_15 
ROOT
HETATM    1  O5  UNK   900      14.160 -69.563 -64.478  1.00  0.00    -0.268 OA
HETATM    2  N1  UNK   900      14.101 -67.258 -64.723  1.00  0.00    -0.347 N 
HETATM    3  C7  UNK   900      13.571 -68.490 -64.374  1.00  0.00     0.255 C 
HETATM    4  H9  UNK   900      13.541 -66.421 -64.590  1.00  0.00     0.163 HD
ENDROOT
BRANCH   2   5
HETATM    5  C2  UNK   900      15.434 -67.110 -65.258  1.00  0.00     0.145 C 
HETATM    6  C1  UNK   900      15.779 -65.640 -65.584  1.00  0.00     0.107 C 
HETATM    7  C3  UNK   900      17.251 -65.587 -66.049  1.00  0.00     0.209 C 
HETATM    8  C6  UNK   900      14.846 -65.041 -66.643  1.00  0.00     0.051 C 
HETATM    9  C5  UNK   900      18.202 -66.278 -65.062  1.00  0.00     0.288 C 
HETATM   10  O1  UNK   900      17.784 -67.624 -64.819  1.00  0.00    -0.357 OA
HETATM   11  C4  UNK   900      16.460 -67.717 -64.296  1.00  0.00     0.199 C 
BRANCH   6  12
HETATM   12  O2  UNK   900      15.651 -64.848 -64.397  1.00  0.00    -0.385 OA
HETATM   13  H10 UNK   900      14.764 -64.998 -64.032  1.00  0.00     0.210 HD
ENDBRANCH   6  12
BRANCH   7  14
HETATM   14  O3  UNK   900      17.663 -64.242 -66.266  1.00  0.00    -0.388 OA
HETATM   15  H11 UNK   900      18.362 -64.042 -65.622  1.00  0.00     0.210 HD
ENDBRANCH   7  14
BRANCH   9  16
HETATM   16  O4  UNK   900      18.376 -65.542 -63.854  1.00  0.00    -0.369 OA
HETATM   17  H12 UNK   900      19.258 -65.758 -63.510  1.00  0.00     0.212 HD
ENDBRANCH   9  16
ENDBRANCH   2   5
BRANCH   3  18
HETATM   18  C8  UNK   900      12.175 -68.476 -63.863  1.00  0.00     0.071 A 
HETATM   19  C9  UNK   900      11.121 -68.852 -64.696  1.00  0.00    -0.043 A 
HETATM   20  C12 UNK   900       9.813 -68.838 -64.212  1.00  0.00     0.008 A 
HETATM   21  C13 UNK   900      11.362 -69.273 -66.108  1.00  0.00     0.049 C 
HETATM   22  C14 UNK   900       9.559 -68.448 -62.897  1.00  0.00     0.010 A 
HETATM   23  C11 UNK   900      10.613 -68.073 -62.065  1.00  0.00    -0.028 A 
HETATM   24  C10 UNK   900      11.922 -68.087 -62.548  1.00  0.00     0.087 A 
HETATM   25  C15 UNK   900      10.320 -67.658 -60.661  1.00  0.00     0.051 C 
BRANCH  24  26
HETATM   26  O6  UNK   900      12.949 -67.717 -61.731  1.00  0.00    -0.359 OA
HETATM   27  H21 UNK   900      12.964 -66.758 -61.589  1.00  0.00     0.217 HD
ENDBRANCH  24  26
ENDBRANCH   3  18
TORSDOF 6
ENDMDL
MODEL 9
REMARK VINA RESULT:      -5.9     19.643     20.889
REMARK  6 active torsions:
REMARK  status: ('A' for Active; 'I' for Inactive)
REMARK    1  A    between atoms: O2_2  and  C1_8 
REMARK    2  A    between atoms: O3_3  and  C3_10 
REMARK    3  A    between atoms: O4_4  and  C5_12 
REMARK    4  A    between atoms: O6_6  and  C10_17 
REMARK    5  A    between atoms: N1_7  and  C2_9 
REMARK       I    between atoms: N1_7  and  C7_14 
REMARK    6  A    between atoms: C7_14  and  C8_15 
ROOT
HETATM    1  O5  UNK   900      23.992 -67.821 -67.829  1.00  0.00    -0.268 OA
HETATM    2  N1  UNK   900      23.379 -66.217 -66.270  1.00  0.00    -0.347 N 
HETATM    3  C7  UNK   900      24.285 -67.023 -66.942  1.00  0.00     0.255 C 
HETATM    4  H9  UNK   900      23.718 -65.577 -65.558  1.00  0.00     0.163 HD
ENDROOT
BRANCH   2   5
HETATM    5  C2  UNK   900      21.965 -66.236 -66.554  1.00  0.00     0.145 C 
HETATM    6  C1  UNK   900      21.122 -66.658 -65.330  1.00  0.00     0.107 C 
HETATM    7  C3  UNK   900      19.631 -66.546 -65.715  1.00  0.00     0.209 C 
HETATM    8  C6  UNK   900      21.460 -68.073 -64.847  1.00  0.00     0.051 C 
HETATM    9  C5  UNK   900      19.281 -65.173 -66.307  1.00  0.00     0.288 C 
HETATM   10  O1  UNK   900      20.126 -64.876 -67.421  1.00  0.00    -0.357 OA
HETATM   11  C4  UNK   900      21.514 -64.873 -67.090  1.00  0.00     0.199 C 
BRANCH   6  12
HETATM   12  O2  UNK   900      21.378 -65.758 -64.245  1.00  0.00    -0.385 OA
HETATM   13  H10 UNK   900      20.587 -65.208 -64.120  1.00  0.00     0.210 HD
ENDBRANCH   6  12
BRANCH   7  14
HETATM   14  O3  UNK   900      18.799 -66.821 -64.593  1.00  0.00    -0.388 OA
HETATM   15  H11 UNK   900      18.734 -67.787 -64.506  1.00  0.00     0.210 HD
ENDBRANCH   7  14
BRANCH   9  16
HETATM   16  O4  UNK   900      19.287 -64.133 -65.332  1.00  0.00    -0.369 OA
HETATM   17  H12 UNK   900      18.874 -64.489 -64.528  1.00  0.00     0.212 HD
ENDBRANCH   9  16
ENDBRANCH   2   5
BRANCH   3  18
HETATM   18  C8  UNK   900      25.703 -66.904 -66.514  1.00  0.00     0.071 A 
HETATM   19  C9  UNK   900      26.621 -66.217 -67.309  1.00  0.00    -0.043 A 
HETATM   20  C12 UNK   900      27.950 -66.107 -66.902  1.00  0.00     0.008 A 
HETATM   21  C13 UNK   900      26.208 -65.590 -68.600  1.00  0.00     0.049 C 
HETATM   22  C14 UNK   900      28.363 -66.684 -65.701  1.00  0.00     0.010 A 
HETATM   23  C11 UNK   900      27.445 -67.370 -64.905  1.00  0.00    -0.028 A 
HETATM   24  C10 UNK   900      26.115 -67.481 -65.311  1.00  0.00     0.087 A 
HETATM   25  C15 UNK   900      27.907 -67.981 -63.624  1.00  0.00     0.051 C 
BRANCH  24  26
HETATM   26  O6  UNK   900      25.222 -68.154 -64.531  1.00  0.00    -0.359 OA
HETATM   27  H21 UNK   900      25.609 -68.966 -64.168  1.00  0.00     0.217 HD
ENDBRANCH  24  26
ENDBRANCH   3  18
TORSDOF 6
ENDMDL
