MODEL 1
REMARK VINA RESULT:      -5.6      0.000      0.000
REMARK  12 active torsions:
REMARK  status: ('A' for Active; 'I' for Inactive)
REMARK    1  A    between atoms: C1_6  and  C5_10 
REMARK    2  A    between atoms: C4_9  and  C11_16 
REMARK    3  A    between atoms: C5_10  and  C12_17 
REMARK    4  A    between atoms: C11_16  and  C14_19 
REMARK    5  A    between atoms: C12_17  and  C15_20 
REMARK    6  A    between atoms: C14_19  and  C16_21 
REMARK    7  A    between atoms: C15_20  and  C17_22 
REMARK    8  A    between atoms: C16_21  and  C18_23 
REMARK    9  A    between atoms: C17_22  and  C19_24 
REMARK   10  A    between atoms: C18_23  and  C20_25 
REMARK   11  A    between atoms: C19_24  and  C21_26 
REMARK   12  A    between atoms: C20_25  and  C22_27 
ROOT
HETATM    1  O1  UNK   900       7.302 -66.001 -48.772  1.00  0.00    -0.301 OA
HETATM    2  O2  UNK   900       5.665 -66.168 -47.159  1.00  0.00    -0.264 OA
HETATM    3  O3  UNK   900       7.269 -65.198 -51.914  1.00  0.00    -0.289 OA
HETATM    4  C1  UNK   900       7.000 -68.063 -49.768  1.00  0.00     0.057 C 
HETATM    5  C2  UNK   900       5.667 -67.657 -49.119  1.00  0.00     0.076 C 
HETATM    6  C3  UNK   900       7.564 -66.674 -50.019  1.00  0.00     0.137 C 
HETATM    7  C4  UNK   900       4.734 -66.918 -50.091  1.00  0.00    -0.045 C 
HETATM    8  C6  UNK   900       6.175 -66.554 -48.198  1.00  0.00     0.273 C 
HETATM    9  C7  UNK   900       6.744 -65.935 -51.082  1.00  0.00     0.190 C 
HETATM   10  C8  UNK   900       5.244 -66.114 -51.054  1.00  0.00    -0.009 C 
HETATM   11  C9  UNK   900       5.065 -68.822 -48.331  1.00  0.00     0.031 C 
HETATM   12  C10 UNK   900       9.057 -66.653 -50.303  1.00  0.00     0.056 C 
HETATM   13  C13 UNK   900       4.485 -65.361 -52.107  1.00  0.00     0.052 C 
ENDROOT
BRANCH   4  14
HETATM   14  C5  UNK   900       6.923 -68.994 -50.974  1.00  0.00     0.088 C 
BRANCH  14  15
HETATM   15  C12 UNK   900       7.618 -70.320 -50.728  1.00  0.00     0.127 C 
HETATM   16  O4  UNK   900       8.771 -70.391 -50.306  1.00  0.00    -0.298 OA
BRANCH  15  17
HETATM   17  C15 UNK   900       6.776 -71.556 -51.009  1.00  0.00     0.078 C 
BRANCH  17  18
HETATM   18  C17 UNK   900       6.568 -71.838 -52.497  1.00  0.00     0.007 C 
BRANCH  18  19
HETATM   19  C19 UNK   900       5.087 -71.977 -52.864  1.00  0.00     0.000 C 
BRANCH  19  20
HETATM   20  C21 UNK   900       4.836 -71.572 -54.316  1.00  0.00    -0.005 C 
HETATM   21  C23 UNK   900       5.419 -70.201 -54.621  1.00  0.00     0.005 C 
ENDBRANCH  19  20
ENDBRANCH  18  19
ENDBRANCH  17  18
ENDBRANCH  15  17
ENDBRANCH  14  15
ENDBRANCH   4  14
BRANCH   7  22
HETATM   22  C11 UNK   900       3.253 -67.104 -49.875  1.00  0.00     0.114 C 
BRANCH  22  23
HETATM   23  C14 UNK   900       2.595 -67.642 -51.128  1.00  0.00     0.130 C 
HETATM   24  O5  UNK   900       1.703 -67.048 -51.732  1.00  0.00    -0.298 OA
BRANCH  23  25
HETATM   25  C16 UNK   900       3.100 -69.010 -51.570  1.00  0.00     0.078 C 
BRANCH  25  26
HETATM   26  C18 UNK   900       2.121 -70.150 -51.294  1.00  0.00     0.007 C 
BRANCH  26  27
HETATM   27  C20 UNK   900       1.605 -70.803 -52.580  1.00  0.00     0.000 C 
BRANCH  27  28
HETATM   28  C22 UNK   900       1.718 -69.848 -53.769  1.00  0.00    -0.005 C 
HETATM   29  C24 UNK   900       0.370 -69.245 -54.127  1.00  0.00     0.005 C 
ENDBRANCH  27  28
ENDBRANCH  26  27
ENDBRANCH  25  26
ENDBRANCH  23  25
ENDBRANCH  22  23
ENDBRANCH   7  22
TORSDOF 12
ENDMDL
MODEL 2
REMARK VINA RESULT:      -5.5      1.185      2.098
REMARK  12 active torsions:
REMARK  status: ('A' for Active; 'I' for Inactive)
REMARK    1  A    between atoms: C1_6  and  C5_10 
REMARK    2  A    between atoms: C4_9  and  C11_16 
REMARK    3  A    between atoms: C5_10  and  C12_17 
REMARK    4  A    between atoms: C11_16  and  C14_19 
REMARK    5  A    between atoms: C12_17  and  C15_20 
REMARK    6  A    between atoms: C14_19  and  C16_21 
REMARK    7  A    between atoms: C15_20  and  C17_22 
REMARK    8  A    between atoms: C16_21  and  C18_23 
REMARK    9  A    between atoms: C17_22  and  C19_24 
REMARK   10  A    between atoms: C18_23  and  C20_25 
REMARK   11  A    between atoms: C19_24  and  C21_26 
REMARK   12  A    between atoms: C20_25  and  C22_27 
ROOT
HETATM    1  O1  UNK   900       7.427 -66.019 -48.688  1.00  0.00    -0.301 OA
HETATM    2  O2  UNK   900       5.865 -66.268 -47.013  1.00  0.00    -0.264 OA
HETATM    3  O3  UNK   900       7.223 -65.290 -51.843  1.00  0.00    -0.289 OA
HETATM    4  C1  UNK   900       7.240 -68.119 -49.632  1.00  0.00     0.057 C 
HETATM    5  C2  UNK   900       5.905 -67.795 -48.942  1.00  0.00     0.076 C 
HETATM    6  C3  UNK   900       7.692 -66.699 -49.931  1.00  0.00     0.137 C 
HETATM    7  C4  UNK   900       4.887 -67.147 -49.892  1.00  0.00    -0.045 C 
HETATM    8  C6  UNK   900       6.365 -66.639 -48.063  1.00  0.00     0.273 C 
HETATM    9  C7  UNK   900       6.783 -66.045 -50.977  1.00  0.00     0.190 C 
HETATM   10  C8  UNK   900       5.302 -66.329 -50.889  1.00  0.00    -0.009 C 
HETATM   11  C9  UNK   900       5.418 -68.982 -48.110  1.00  0.00     0.031 C 
HETATM   12  C10 UNK   900       9.169 -66.577 -50.271  1.00  0.00     0.056 C 
HETATM   13  C13 UNK   900       4.453 -65.657 -51.927  1.00  0.00     0.052 C 
ENDROOT
BRANCH   4  14
HETATM   14  C5  UNK   900       7.187 -69.079 -50.816  1.00  0.00     0.088 C 
BRANCH  14  15
HETATM   15  C12 UNK   900       8.065 -70.299 -50.613  1.00  0.00     0.127 C 
HETATM   16  O4  UNK   900       9.149 -70.242 -50.033  1.00  0.00    -0.298 OA
BRANCH  15  17
HETATM   17  C15 UNK   900       7.496 -71.606 -51.147  1.00  0.00     0.078 C 
BRANCH  17  18
HETATM   18  C17 UNK   900       6.509 -72.284 -50.198  1.00  0.00     0.007 C 
BRANCH  18  19
HETATM   19  C19 UNK   900       5.318 -72.902 -50.938  1.00  0.00     0.000 C 
BRANCH  19  20
HETATM   20  C21 UNK   900       4.863 -74.199 -50.270  1.00  0.00    -0.005 C 
HETATM   21  C23 UNK   900       5.997 -74.855 -49.498  1.00  0.00     0.005 C 
ENDBRANCH  19  20
ENDBRANCH  18  19
ENDBRANCH  17  18
ENDBRANCH  15  17
ENDBRANCH  14  15
ENDBRANCH   4  14
BRANCH   7  22
HETATM   22  C11 UNK   900       3.432 -67.434 -49.618  1.00  0.00     0.114 C 
BRANCH  22  23
HETATM   23  C14 UNK   900       2.829 -68.254 -50.739  1.00  0.00     0.130 C 
HETATM   24  O5  UNK   900       1.861 -67.884 -51.402  1.00  0.00    -0.298 OA
BRANCH  23  25
HETATM   25  C16 UNK   900       3.495 -69.606 -50.961  1.00  0.00     0.078 C 
BRANCH  25  26
HETATM   26  C18 UNK   900       2.751 -70.509 -51.944  1.00  0.00     0.007 C 
BRANCH  26  27
HETATM   27  C20 UNK   900       3.314 -70.414 -53.366  1.00  0.00     0.000 C 
BRANCH  27  28
HETATM   28  C22 UNK   900       4.787 -70.004 -53.351  1.00  0.00    -0.005 C 
HETATM   29  C24 UNK   900       5.453 -70.275 -54.691  1.00  0.00     0.005 C 
ENDBRANCH  27  28
ENDBRANCH  26  27
ENDBRANCH  25  26
ENDBRANCH  23  25
ENDBRANCH  22  23
ENDBRANCH   7  22
TORSDOF 12
ENDMDL
MODEL 3
REMARK VINA RESULT:      -5.4      1.918      2.337
REMARK  12 active torsions:
REMARK  status: ('A' for Active; 'I' for Inactive)
REMARK    1  A    between atoms: C1_6  and  C5_10 
REMARK    2  A    between atoms: C4_9  and  C11_16 
REMARK    3  A    between atoms: C5_10  and  C12_17 
REMARK    4  A    between atoms: C11_16  and  C14_19 
REMARK    5  A    between atoms: C12_17  and  C15_20 
REMARK    6  A    between atoms: C14_19  and  C16_21 
REMARK    7  A    between atoms: C15_20  and  C17_22 
REMARK    8  A    between atoms: C16_21  and  C18_23 
REMARK    9  A    between atoms: C17_22  and  C19_24 
REMARK   10  A    between atoms: C18_23  and  C20_25 
REMARK   11  A    between atoms: C19_24  and  C21_26 
REMARK   12  A    between atoms: C20_25  and  C22_27 
ROOT
HETATM    1  O1  UNK   900       7.852 -66.424 -48.073  1.00  0.00    -0.301 OA
HETATM    2  O2  UNK   900       6.109 -66.998 -46.680  1.00  0.00    -0.264 OA
HETATM    3  O3  UNK   900       8.038 -65.667 -51.222  1.00  0.00    -0.289 OA
HETATM    4  C1  UNK   900       8.216 -68.498 -49.022  1.00  0.00     0.057 C 
HETATM    5  C2  UNK   900       6.749 -68.444 -48.565  1.00  0.00     0.076 C 
HETATM    6  C3  UNK   900       8.440 -67.012 -49.250  1.00  0.00     0.137 C 
HETATM    7  C4  UNK   900       5.799 -67.971 -49.676  1.00  0.00    -0.045 C 
HETATM    8  C6  UNK   900       6.835 -67.245 -47.629  1.00  0.00     0.273 C 
HETATM    9  C7  UNK   900       7.610 -66.511 -50.436  1.00  0.00     0.190 C 
HETATM   10  C8  UNK   900       6.213 -67.066 -50.595  1.00  0.00    -0.009 C 
HETATM   11  C9  UNK   900       6.361 -69.721 -47.819  1.00  0.00     0.031 C 
HETATM   12  C10 UNK   900       9.903 -66.612 -49.340  1.00  0.00     0.056 C 
HETATM   13  C13 UNK   900       5.437 -66.536 -51.764  1.00  0.00     0.052 C 
ENDROOT
BRANCH   4  14
HETATM   14  C5  UNK   900       8.538 -69.422 -50.192  1.00  0.00     0.088 C 
BRANCH  14  15
HETATM   15  C12 UNK   900       8.935 -70.815 -49.739  1.00  0.00     0.127 C 
HETATM   16  O4  UNK   900       9.933 -71.025 -49.053  1.00  0.00    -0.298 OA
BRANCH  15  17
HETATM   17  C15 UNK   900       7.990 -71.930 -50.165  1.00  0.00     0.078 C 
BRANCH  17  18
HETATM   18  C17 UNK   900       7.315 -71.687 -51.515  1.00  0.00     0.007 C 
BRANCH  18  19
HETATM   19  C19 UNK   900       5.795 -71.540 -51.390  1.00  0.00     0.000 C 
BRANCH  19  20
HETATM   20  C21 UNK   900       5.221 -70.725 -52.548  1.00  0.00    -0.005 C 
HETATM   21  C23 UNK   900       5.163 -71.541 -53.830  1.00  0.00     0.005 C 
ENDBRANCH  19  20
ENDBRANCH  18  19
ENDBRANCH  17  18
ENDBRANCH  15  17
ENDBRANCH  14  15
ENDBRANCH   4  14
BRANCH   7  22
HETATM   22  C11 UNK   900       4.398 -68.528 -49.646  1.00  0.00     0.114 C 
BRANCH  22  23
HETATM   23  C14 UNK   900       3.565 -67.820 -48.598  1.00  0.00     0.130 C 
HETATM   24  O5  UNK   900       3.190 -68.357 -47.556  1.00  0.00    -0.298 OA
BRANCH  23  25
HETATM   25  C16 UNK   900       3.186 -66.388 -48.953  1.00  0.00     0.078 C 
BRANCH  25  26
HETATM   26  C18 UNK   900       1.818 -66.256 -49.621  1.00  0.00     0.007 C 
BRANCH  26  27
HETATM   27  C20 UNK   900       1.915 -65.717 -51.052  1.00  0.00     0.000 C 
BRANCH  27  28
HETATM   28  C22 UNK   900       1.786 -66.844 -52.077  1.00  0.00    -0.005 C 
HETATM   29  C24 UNK   900       0.625 -66.602 -53.028  1.00  0.00     0.005 C 
ENDBRANCH  27  28
ENDBRANCH  26  27
ENDBRANCH  25  26
ENDBRANCH  23  25
ENDBRANCH  22  23
ENDBRANCH   7  22
TORSDOF 12
ENDMDL
MODEL 4
REMARK VINA RESULT:      -5.3     53.585     56.551
REMARK  12 active torsions:
REMARK  status: ('A' for Active; 'I' for Inactive)
REMARK    1  A    between atoms: C1_6  and  C5_10 
REMARK    2  A    between atoms: C4_9  and  C11_16 
REMARK    3  A    between atoms: C5_10  and  C12_17 
REMARK    4  A    between atoms: C11_16  and  C14_19 
REMARK    5  A    between atoms: C12_17  and  C15_20 
REMARK    6  A    between atoms: C14_19  and  C16_21 
REMARK    7  A    between atoms: C15_20  and  C17_22 
REMARK    8  A    between atoms: C16_21  and  C18_23 
REMARK    9  A    between atoms: C17_22  and  C19_24 
REMARK   10  A    between atoms: C18_23  and  C20_25 
REMARK   11  A    between atoms: C19_24  and  C21_26 
REMARK   12  A    between atoms: C20_25  and  C22_27 
ROOT
HETATM    1  O1  UNK   900      23.170 -23.685 -73.684  1.00  0.00    -0.301 OA
HETATM    2  O2  UNK   900      22.973 -25.036 -75.540  1.00  0.00    -0.264 OA
HETATM    3  O3  UNK   900      22.399 -20.592 -73.081  1.00  0.00    -0.289 OA
HETATM    4  C1  UNK   900      25.126 -22.604 -74.264  1.00  0.00     0.057 C 
HETATM    5  C2  UNK   900      24.442 -23.061 -75.563  1.00  0.00     0.076 C 
HETATM    6  C3  UNK   900      23.891 -22.473 -73.388  1.00  0.00     0.137 C 
HETATM    7  C4  UNK   900      23.528 -21.982 -76.164  1.00  0.00    -0.045 C 
HETATM    8  C6  UNK   900      23.466 -24.073 -74.975  1.00  0.00     0.273 C 
HETATM    9  C7  UNK   900      23.002 -21.320 -73.867  1.00  0.00     0.190 C 
HETATM   10  C8  UNK   900      22.857 -21.124 -75.358  1.00  0.00    -0.009 C 
HETATM   11  C9  UNK   900      25.446 -23.723 -76.507  1.00  0.00     0.031 C 
HETATM   12  C10 UNK   900      24.191 -22.411 -71.900  1.00  0.00     0.056 C 
HETATM   13  C13 UNK   900      21.967 -19.991 -75.776  1.00  0.00     0.052 C 
ENDROOT
BRANCH   4  14
HETATM   14  C5  UNK   900      26.028 -21.377 -74.357  1.00  0.00     0.088 C 
BRANCH  14  15
HETATM   15  C12 UNK   900      27.367 -21.588 -73.676  1.00  0.00     0.127 C 
HETATM   16  O4  UNK   900      27.696 -22.669 -73.191  1.00  0.00    -0.298 OA
BRANCH  15  17
HETATM   17  C15 UNK   900      28.288 -20.376 -73.665  1.00  0.00     0.078 C 
BRANCH  17  18
HETATM   18  C17 UNK   900      28.579 -19.833 -72.267  1.00  0.00     0.007 C 
BRANCH  18  19
HETATM   19  C19 UNK   900      27.663 -18.664 -71.891  1.00  0.00     0.000 C 
BRANCH  19  20
HETATM   20  C21 UNK   900      26.457 -19.144 -71.084  1.00  0.00    -0.005 C 
HETATM   21  C23 UNK   900      25.148 -18.800 -71.778  1.00  0.00     0.005 C 
ENDBRANCH  19  20
ENDBRANCH  18  19
ENDBRANCH  17  18
ENDBRANCH  15  17
ENDBRANCH  14  15
ENDBRANCH   4  14
BRANCH   7  22
HETATM   22  C11 UNK   900      23.393 -21.974 -77.665  1.00  0.00     0.114 C 
BRANCH  22  23
HETATM   23  C14 UNK   900      24.214 -20.854 -78.269  1.00  0.00     0.130 C 
HETATM   24  O5  UNK   900      25.355 -20.576 -77.900  1.00  0.00    -0.298 OA
BRANCH  23  25
HETATM   25  C16 UNK   900      23.498 -20.059 -79.354  1.00  0.00     0.078 C 
BRANCH  25  26
HETATM   26  C18 UNK   900      23.946 -20.405 -80.773  1.00  0.00     0.007 C 
BRANCH  26  27
HETATM   27  C20 UNK   900      22.777 -20.831 -81.668  1.00  0.00     0.000 C 
BRANCH  27  28
HETATM   28  C22 UNK   900      22.340 -22.264 -81.361  1.00  0.00    -0.005 C 
HETATM   29  C24 UNK   900      22.422 -23.146 -82.596  1.00  0.00     0.005 C 
ENDBRANCH  27  28
ENDBRANCH  26  27
ENDBRANCH  25  26
ENDBRANCH  23  25
ENDBRANCH  22  23
ENDBRANCH   7  22
TORSDOF 12
ENDMDL
MODEL 5
REMARK VINA RESULT:      -5.2      2.540      6.964
REMARK  12 active torsions:
REMARK  status: ('A' for Active; 'I' for Inactive)
REMARK    1  A    between atoms: C1_6  and  C5_10 
REMARK    2  A    between atoms: C4_9  and  C11_16 
REMARK    3  A    between atoms: C5_10  and  C12_17 
REMARK    4  A    between atoms: C11_16  and  C14_19 
REMARK    5  A    between atoms: C12_17  and  C15_20 
REMARK    6  A    between atoms: C14_19  and  C16_21 
REMARK    7  A    between atoms: C15_20  and  C17_22 
REMARK    8  A    between atoms: C16_21  and  C18_23 
REMARK    9  A    between atoms: C17_22  and  C19_24 
REMARK   10  A    between atoms: C18_23  and  C20_25 
REMARK   11  A    between atoms: C19_24  and  C21_26 
REMARK   12  A    between atoms: C20_25  and  C22_27 
ROOT
HETATM    1  O1  UNK   900       5.295 -66.745 -48.182  1.00  0.00    -0.301 OA
HETATM    2  O2  UNK   900       6.968 -65.587 -49.262  1.00  0.00    -0.264 OA
HETATM    3  O3  UNK   900       4.391 -69.861 -48.158  1.00  0.00    -0.289 OA
HETATM    4  C1  UNK   900       3.756 -66.789 -49.903  1.00  0.00     0.057 C 
HETATM    5  C2  UNK   900       5.154 -66.664 -50.529  1.00  0.00     0.076 C 
HETATM    6  C3  UNK   900       4.144 -67.497 -48.615  1.00  0.00     0.137 C 
HETATM    7  C4  UNK   900       5.769 -68.026 -50.886  1.00  0.00    -0.045 C 
HETATM    8  C6  UNK   900       5.931 -66.230 -49.292  1.00  0.00     0.273 C 
HETATM    9  C7  UNK   900       4.645 -68.916 -48.902  1.00  0.00     0.190 C 
HETATM   10  C8  UNK   900       5.507 -69.117 -50.128  1.00  0.00    -0.009 C 
HETATM   11  C9  UNK   900       5.172 -65.589 -51.617  1.00  0.00     0.031 C 
HETATM   12  C10 UNK   900       3.074 -67.454 -47.537  1.00  0.00     0.056 C 
HETATM   13  C13 UNK   900       5.982 -70.521 -50.359  1.00  0.00     0.052 C 
ENDROOT
BRANCH   4  14
HETATM   14  C5  UNK   900       2.680 -67.460 -50.751  1.00  0.00     0.088 C 
BRANCH  14  15
HETATM   15  C12 UNK   900       1.526 -66.529 -51.068  1.00  0.00     0.127 C 
HETATM   16  O4  UNK   900       0.507 -66.913 -51.641  1.00  0.00    -0.298 OA
BRANCH  15  17
HETATM   17  C15 UNK   900       1.702 -65.092 -50.598  1.00  0.00     0.078 C 
BRANCH  17  18
HETATM   18  C17 UNK   900       0.425 -64.462 -50.042  1.00  0.00     0.007 C 
BRANCH  18  19
HETATM   19  C19 UNK   900       0.716 -63.356 -49.023  1.00  0.00     0.000 C 
BRANCH  19  20
HETATM   20  C21 UNK   900       0.209 -63.738 -47.632  1.00  0.00    -0.005 C 
HETATM   21  C23 UNK   900       1.329 -64.283 -46.761  1.00  0.00     0.005 C 
ENDBRANCH  19  20
ENDBRANCH  18  19
ENDBRANCH  17  18
ENDBRANCH  15  17
ENDBRANCH  14  15
ENDBRANCH   4  14
BRANCH   7  22
HETATM   22  C11 UNK   900       6.698 -68.055 -52.073  1.00  0.00     0.114 C 
BRANCH  22  23
HETATM   23  C14 UNK   900       8.080 -67.575 -51.682  1.00  0.00     0.130 C 
HETATM   24  O5  UNK   900       8.518 -66.463 -51.973  1.00  0.00    -0.298 OA
BRANCH  23  25
HETATM   25  C16 UNK   900       8.913 -68.602 -50.925  1.00  0.00     0.078 C 
BRANCH  25  26
HETATM   26  C18 UNK   900       9.232 -68.201 -49.485  1.00  0.00     0.007 C 
BRANCH  26  27
HETATM   27  C20 UNK   900       9.152 -69.385 -48.516  1.00  0.00     0.000 C 
BRANCH  27  28
HETATM   28  C22 UNK   900      10.288 -70.379 -48.763  1.00  0.00    -0.005 C 
HETATM   29  C24 UNK   900      11.619 -69.836 -48.268  1.00  0.00     0.005 C 
ENDBRANCH  27  28
ENDBRANCH  26  27
ENDBRANCH  25  26
ENDBRANCH  23  25
ENDBRANCH  22  23
ENDBRANCH   7  22
TORSDOF 12
ENDMDL
MODEL 6
REMARK VINA RESULT:      -5.1      2.241      4.441
REMARK  12 active torsions:
REMARK  status: ('A' for Active; 'I' for Inactive)
REMARK    1  A    between atoms: C1_6  and  C5_10 
REMARK    2  A    between atoms: C4_9  and  C11_16 
REMARK    3  A    between atoms: C5_10  and  C12_17 
REMARK    4  A    between atoms: C11_16  and  C14_19 
REMARK    5  A    between atoms: C12_17  and  C15_20 
REMARK    6  A    between atoms: C14_19  and  C16_21 
REMARK    7  A    between atoms: C15_20  and  C17_22 
REMARK    8  A    between atoms: C16_21  and  C18_23 
REMARK    9  A    between atoms: C17_22  and  C19_24 
REMARK   10  A    between atoms: C18_23  and  C20_25 
REMARK   11  A    between atoms: C19_24  and  C21_26 
REMARK   12  A    between atoms: C20_25  and  C22_27 
ROOT
HETATM    1  O1  UNK   900       4.609 -65.722 -52.123  1.00  0.00    -0.301 OA
HETATM    2  O2  UNK   900       2.348 -65.298 -51.985  1.00  0.00    -0.264 OA
HETATM    3  O3  UNK   900       6.348 -68.383 -52.769  1.00  0.00    -0.289 OA
HETATM    4  C1  UNK   900       4.914 -66.595 -50.007  1.00  0.00     0.057 C 
HETATM    5  C2  UNK   900       3.447 -66.830 -50.403  1.00  0.00     0.076 C 
HETATM    6  C3  UNK   900       5.525 -66.566 -51.398  1.00  0.00     0.137 C 
HETATM    7  C4  UNK   900       3.223 -68.198 -51.064  1.00  0.00    -0.045 C 
HETATM    8  C6  UNK   900       3.354 -65.848 -51.564  1.00  0.00     0.273 C 
HETATM    9  C7  UNK   900       5.445 -67.946 -52.058  1.00  0.00     0.190 C 
HETATM   10  C8  UNK   900       4.187 -68.754 -51.835  1.00  0.00    -0.009 C 
HETATM   11  C9  UNK   900       2.504 -66.449 -49.260  1.00  0.00     0.031 C 
HETATM   12  C10 UNK   900       6.919 -65.965 -51.450  1.00  0.00     0.056 C 
HETATM   13  C13 UNK   900       4.152 -70.093 -52.512  1.00  0.00     0.052 C 
ENDROOT
BRANCH   4  14
HETATM   14  C5  UNK   900       5.525 -67.580 -49.016  1.00  0.00     0.088 C 
BRANCH  14  15
HETATM   15  C12 UNK   900       6.443 -66.903 -48.016  1.00  0.00     0.127 C 
HETATM   16  O4  UNK   900       6.437 -65.687 -47.833  1.00  0.00    -0.298 OA
BRANCH  15  17
HETATM   17  C15 UNK   900       7.350 -67.839 -47.229  1.00  0.00     0.078 C 
BRANCH  17  18
HETATM   18  C17 UNK   900       8.121 -68.830 -48.099  1.00  0.00     0.007 C 
BRANCH  18  19
HETATM   19  C19 UNK   900       8.992 -68.131 -49.149  1.00  0.00     0.000 C 
BRANCH  19  20
HETATM   20  C21 UNK   900       9.000 -68.907 -50.466  1.00  0.00    -0.005 C 
HETATM   21  C23 UNK   900       8.082 -70.118 -50.406  1.00  0.00     0.005 C 
ENDBRANCH  19  20
ENDBRANCH  18  19
ENDBRANCH  17  18
ENDBRANCH  15  17
ENDBRANCH  14  15
ENDBRANCH   4  14
BRANCH   7  22
HETATM   22  C11 UNK   900       1.876 -68.840 -50.843  1.00  0.00     0.114 C 
BRANCH  22  23
HETATM   23  C14 UNK   900       0.908 -68.437 -51.936  1.00  0.00     0.130 C 
HETATM   24  O5  UNK   900       1.095 -68.677 -53.128  1.00  0.00    -0.298 OA
BRANCH  23  25
HETATM   25  C16 UNK   900      -0.312 -67.667 -51.447  1.00  0.00     0.078 C 
BRANCH  25  26
HETATM   26  C18 UNK   900      -0.806 -66.602 -52.425  1.00  0.00     0.007 C 
BRANCH  26  27
HETATM   27  C20 UNK   900      -1.245 -65.316 -51.718  1.00  0.00     0.000 C 
BRANCH  27  28
HETATM   28  C22 UNK   900      -0.684 -65.248 -50.296  1.00  0.00    -0.005 C 
HETATM   29  C24 UNK   900      -0.196 -63.849 -49.958  1.00  0.00     0.005 C 
ENDBRANCH  27  28
ENDBRANCH  26  27
ENDBRANCH  25  26
ENDBRANCH  23  25
ENDBRANCH  22  23
ENDBRANCH   7  22
TORSDOF 12
ENDMDL
MODEL 7
REMARK VINA RESULT:      -5.0      1.643      2.348
REMARK  12 active torsions:
REMARK  status: ('A' for Active; 'I' for Inactive)
REMARK    1  A    between atoms: C1_6  and  C5_10 
REMARK    2  A    between atoms: C4_9  and  C11_16 
REMARK    3  A    between atoms: C5_10  and  C12_17 
REMARK    4  A    between atoms: C11_16  and  C14_19 
REMARK    5  A    between atoms: C12_17  and  C15_20 
REMARK    6  A    between atoms: C14_19  and  C16_21 
REMARK    7  A    between atoms: C15_20  and  C17_22 
REMARK    8  A    between atoms: C16_21  and  C18_23 
REMARK    9  A    between atoms: C17_22  and  C19_24 
REMARK   10  A    between atoms: C18_23  and  C20_25 
REMARK   11  A    between atoms: C19_24  and  C21_26 
REMARK   12  A    between atoms: C20_25  and  C22_27 
ROOT
HETATM    1  O1  UNK   900       7.262 -66.036 -48.631  1.00  0.00    -0.301 OA
HETATM    2  O2  UNK   900       5.560 -66.340 -47.109  1.00  0.00    -0.264 OA
HETATM    3  O3  UNK   900       7.332 -65.254 -51.778  1.00  0.00    -0.289 OA
HETATM    4  C1  UNK   900       7.199 -68.121 -49.622  1.00  0.00     0.057 C 
HETATM    5  C2  UNK   900       5.802 -67.832 -49.050  1.00  0.00     0.076 C 
HETATM    6  C3  UNK   900       7.651 -66.689 -49.855  1.00  0.00     0.137 C 
HETATM    7  C4  UNK   900       4.862 -67.184 -50.079  1.00  0.00    -0.045 C 
HETATM    8  C6  UNK   900       6.159 -66.684 -48.114  1.00  0.00     0.273 C 
HETATM    9  C7  UNK   900       6.829 -66.031 -50.968  1.00  0.00     0.190 C 
HETATM   10  C8  UNK   900       5.351 -66.342 -51.021  1.00  0.00    -0.009 C 
HETATM   11  C9  UNK   900       5.263 -69.041 -48.285  1.00  0.00     0.031 C 
HETATM   12  C10 UNK   900       9.150 -66.537 -50.057  1.00  0.00     0.056 C 
HETATM   13  C13 UNK   900       4.588 -65.665 -52.121  1.00  0.00     0.052 C 
ENDROOT
BRANCH   4  14
HETATM   14  C5  UNK   900       7.271 -69.061 -50.820  1.00  0.00     0.088 C 
BRANCH  14  15
HETATM   15  C12 UNK   900       8.183 -70.248 -50.573  1.00  0.00     0.127 C 
HETATM   16  O4  UNK   900       9.264 -70.140 -49.996  1.00  0.00    -0.298 OA
BRANCH  15  17
HETATM   17  C15 UNK   900       7.650 -71.589 -51.058  1.00  0.00     0.078 C 
BRANCH  17  18
HETATM   18  C17 UNK   900       6.125 -71.679 -51.073  1.00  0.00     0.007 C 
BRANCH  18  19
HETATM   19  C19 UNK   900       5.573 -72.450 -49.869  1.00  0.00     0.000 C 
BRANCH  19  20
HETATM   20  C21 UNK   900       5.221 -73.889 -50.247  1.00  0.00    -0.005 C 
HETATM   21  C23 UNK   900       6.085 -74.890 -49.497  1.00  0.00     0.005 C 
ENDBRANCH  19  20
ENDBRANCH  18  19
ENDBRANCH  17  18
ENDBRANCH  15  17
ENDBRANCH  14  15
ENDBRANCH   4  14
BRANCH   7  22
HETATM   22  C11 UNK   900       3.394 -67.500 -49.943  1.00  0.00     0.114 C 
BRANCH  22  23
HETATM   23  C14 UNK   900       2.972 -68.526 -50.973  1.00  0.00     0.130 C 
HETATM   24  O5  UNK   900       3.765 -69.254 -51.567  1.00  0.00    -0.298 OA
BRANCH  23  25
HETATM   25  C16 UNK   900       1.474 -68.562 -51.252  1.00  0.00     0.078 C 
BRANCH  25  26
HETATM   26  C18 UNK   900       1.104 -68.229 -52.696  1.00  0.00     0.007 C 
BRANCH  26  27
HETATM   27  C20 UNK   900       0.994 -66.720 -52.938  1.00  0.00     0.000 C 
BRANCH  27  28
HETATM   28  C22 UNK   900       0.036 -66.069 -51.940  1.00  0.00    -0.005 C 
HETATM   29  C24 UNK   900      -1.297 -65.731 -52.588  1.00  0.00     0.005 C 
ENDBRANCH  27  28
ENDBRANCH  26  27
ENDBRANCH  25  26
ENDBRANCH  23  25
ENDBRANCH  22  23
ENDBRANCH   7  22
TORSDOF 12
ENDMDL
MODEL 8
REMARK VINA RESULT:      -5.0     53.538     56.551
REMARK  12 active torsions:
REMARK  status: ('A' for Active; 'I' for Inactive)
REMARK    1  A    between atoms: C1_6  and  C5_10 
REMARK    2  A    between atoms: C4_9  and  C11_16 
REMARK    3  A    between atoms: C5_10  and  C12_17 
REMARK    4  A    between atoms: C11_16  and  C14_19 
REMARK    5  A    between atoms: C12_17  and  C15_20 
REMARK    6  A    between atoms: C14_19  and  C16_21 
REMARK    7  A    between atoms: C15_20  and  C17_22 
REMARK    8  A    between atoms: C16_21  and  C18_23 
REMARK    9  A    between atoms: C17_22  and  C19_24 
REMARK   10  A    between atoms: C18_23  and  C20_25 
REMARK   11  A    between atoms: C19_24  and  C21_26 
REMARK   12  A    between atoms: C20_25  and  C22_27 
ROOT
HETATM    1  O1  UNK   900      26.362 -19.874 -70.543  1.00  0.00    -0.301 OA
HETATM    2  O2  UNK   900      28.086 -19.817 -72.070  1.00  0.00    -0.264 OA
HETATM    3  O3  UNK   900      23.776 -21.795 -70.165  1.00  0.00    -0.289 OA
HETATM    4  C1  UNK   900      24.774 -18.755 -71.792  1.00  0.00     0.057 C 
HETATM    5  C2  UNK   900      25.763 -19.410 -72.770  1.00  0.00     0.076 C 
HETATM    6  C3  UNK   900      24.931 -19.720 -70.628  1.00  0.00     0.137 C 
HETATM    7  C4  UNK   900      25.310 -20.805 -73.227  1.00  0.00    -0.045 C 
HETATM    8  C6  UNK   900      26.902 -19.699 -71.801  1.00  0.00     0.273 C 
HETATM    9  C7  UNK   900      24.375 -21.102 -70.985  1.00  0.00     0.190 C 
HETATM   10  C8  UNK   900      24.619 -21.612 -72.387  1.00  0.00    -0.009 C 
HETATM   11  C9  UNK   900      26.183 -18.426 -73.863  1.00  0.00     0.031 C 
HETATM   12  C10 UNK   900      24.399 -19.190 -69.307  1.00  0.00     0.056 C 
HETATM   13  C13 UNK   900      24.064 -22.974 -72.684  1.00  0.00     0.052 C 
ENDROOT
BRANCH   4  14
HETATM   14  C5  UNK   900      23.354 -18.528 -72.299  1.00  0.00     0.088 C 
BRANCH  14  15
HETATM   15  C12 UNK   900      23.074 -17.068 -72.605  1.00  0.00     0.127 C 
HETATM   16  O4  UNK   900      23.404 -16.160 -71.844  1.00  0.00    -0.298 OA
BRANCH  15  17
HETATM   17  C15 UNK   900      22.386 -16.804 -73.937  1.00  0.00     0.078 C 
BRANCH  17  18
HETATM   18  C17 UNK   900      22.879 -17.695 -75.076  1.00  0.00     0.007 C 
BRANCH  18  19
HETATM   19  C19 UNK   900      21.774 -18.597 -75.633  1.00  0.00     0.000 C 
BRANCH  19  20
HETATM   20  C21 UNK   900      22.280 -20.023 -75.850  1.00  0.00    -0.005 C 
HETATM   21  C23 UNK   900      23.207 -20.109 -77.052  1.00  0.00     0.005 C 
ENDBRANCH  19  20
ENDBRANCH  18  19
ENDBRANCH  17  18
ENDBRANCH  15  17
ENDBRANCH  14  15
ENDBRANCH   4  14
BRANCH   7  22
HETATM   22  C11 UNK   900      25.720 -21.225 -74.616  1.00  0.00     0.114 C 
BRANCH  22  23
HETATM   23  C14 UNK   900      26.721 -22.359 -74.558  1.00  0.00     0.130 C 
HETATM   24  O5  UNK   900      27.548 -22.486 -73.655  1.00  0.00    -0.298 OA
BRANCH  23  25
HETATM   25  C16 UNK   900      26.655 -23.322 -75.737  1.00  0.00     0.078 C 
BRANCH  25  26
HETATM   26  C18 UNK   900      25.260 -23.464 -76.343  1.00  0.00     0.007 C 
BRANCH  26  27
HETATM   27  C20 UNK   900      24.697 -24.880 -76.192  1.00  0.00     0.000 C 
BRANCH  27  28
HETATM   28  C22 UNK   900      23.168 -24.872 -76.209  1.00  0.00    -0.005 C 
HETATM   29  C24 UNK   900      22.616 -23.477 -75.967  1.00  0.00     0.005 C 
ENDBRANCH  27  28
ENDBRANCH  26  27
ENDBRANCH  25  26
ENDBRANCH  23  25
ENDBRANCH  22  23
ENDBRANCH   7  22
TORSDOF 12
ENDMDL
MODEL 9
REMARK VINA RESULT:      -4.9      2.517      4.205
REMARK  12 active torsions:
REMARK  status: ('A' for Active; 'I' for Inactive)
REMARK    1  A    between atoms: C1_6  and  C5_10 
REMARK    2  A    between atoms: C4_9  and  C11_16 
REMARK    3  A    between atoms: C5_10  and  C12_17 
REMARK    4  A    between atoms: C11_16  and  C14_19 
REMARK    5  A    between atoms: C12_17  and  C15_20 
REMARK    6  A    between atoms: C14_19  and  C16_21 
REMARK    7  A    between atoms: C15_20  and  C17_22 
REMARK    8  A    between atoms: C16_21  and  C18_23 
REMARK    9  A    between atoms: C17_22  and  C19_24 
REMARK   10  A    between atoms: C18_23  and  C20_25 
REMARK   11  A    between atoms: C19_24  and  C21_26 
REMARK   12  A    between atoms: C20_25  and  C22_27 
ROOT
HETATM    1  O1  UNK   900       6.576 -65.893 -49.803  1.00  0.00    -0.301 OA
HETATM    2  O2  UNK   900       6.424 -65.591 -47.524  1.00  0.00    -0.264 OA
HETATM    3  O3  UNK   900       4.401 -65.865 -52.210  1.00  0.00    -0.289 OA
HETATM    4  C1  UNK   900       5.956 -68.116 -49.887  1.00  0.00     0.057 C 
HETATM    5  C2  UNK   900       5.332 -67.504 -48.622  1.00  0.00     0.076 C 
HETATM    6  C3  UNK   900       6.041 -66.857 -50.733  1.00  0.00     0.137 C 
HETATM    7  C4  UNK   900       3.909 -66.975 -48.858  1.00  0.00    -0.045 C 
HETATM    8  C6  UNK   900       6.176 -66.239 -48.529  1.00  0.00     0.273 C 
HETATM    9  C7  UNK   900       4.643 -66.356 -51.109  1.00  0.00     0.190 C 
HETATM   10  C8  UNK   900       3.562 -66.450 -50.057  1.00  0.00    -0.009 C 
HETATM   11  C9  UNK   900       5.541 -68.416 -47.412  1.00  0.00     0.031 C 
HETATM   12  C10 UNK   900       6.970 -66.976 -51.930  1.00  0.00     0.056 C 
HETATM   13  C13 UNK   900       2.214 -65.936 -50.470  1.00  0.00     0.052 C 
ENDROOT
BRANCH   4  14
HETATM   14  C5  UNK   900       5.227 -69.304 -50.506  1.00  0.00     0.088 C 
BRANCH  14  15
HETATM   15  C12 UNK   900       6.174 -70.417 -50.915  1.00  0.00     0.127 C 
HETATM   16  O4  UNK   900       6.199 -70.875 -52.056  1.00  0.00    -0.298 OA
BRANCH  15  17
HETATM   17  C15 UNK   900       7.114 -70.904 -49.822  1.00  0.00     0.078 C 
BRANCH  17  18
HETATM   18  C17 UNK   900       8.557 -71.097 -50.288  1.00  0.00     0.007 C 
BRANCH  18  19
HETATM   19  C19 UNK   900       9.320 -69.772 -50.391  1.00  0.00     0.000 C 
BRANCH  19  20
HETATM   20  C21 UNK   900       9.357 -69.049 -49.044  1.00  0.00    -0.005 C 
HETATM   21  C23 UNK   900       9.569 -67.554 -49.220  1.00  0.00     0.005 C 
ENDBRANCH  19  20
ENDBRANCH  18  19
ENDBRANCH  17  18
ENDBRANCH  15  17
ENDBRANCH  14  15
ENDBRANCH   4  14
BRANCH   7  22
HETATM   22  C11 UNK   900       2.966 -67.033 -47.683  1.00  0.00     0.114 C 
BRANCH  22  23
HETATM   23  C14 UNK   900       1.952 -68.143 -47.867  1.00  0.00     0.130 C 
HETATM   24  O5  UNK   900       2.161 -69.143 -48.553  1.00  0.00    -0.298 OA
BRANCH  23  25
HETATM   25  C16 UNK   900       0.622 -67.908 -47.161  1.00  0.00     0.078 C 
BRANCH  25  26
HETATM   26  C18 UNK   900       0.561 -66.601 -46.374  1.00  0.00     0.007 C 
BRANCH  26  27
HETATM   27  C20 UNK   900      -0.192 -65.499 -47.126  1.00  0.00     0.000 C 
BRANCH  27  28
HETATM   28  C22 UNK   900       0.504 -64.147 -46.969  1.00  0.00    -0.005 C 
HETATM   29  C24 UNK   900       0.629 -63.428 -48.303  1.00  0.00     0.005 C 
ENDBRANCH  27  28
ENDBRANCH  26  27
ENDBRANCH  25  26
ENDBRANCH  23  25
ENDBRANCH  22  23
ENDBRANCH   7  22
TORSDOF 12
ENDMDL
