MODEL 1
REMARK VINA RESULT:      -7.3      0.000      0.000
REMARK  4 active torsions:
REMARK  status: ('A' for Active; 'I' for Inactive)
REMARK    1  A    between atoms: O2_2  and  C7_13 
REMARK    2  A    between atoms: O4_4  and  C9_15 
REMARK    3  A    between atoms: O5_5  and  C10_16 
REMARK    4  A    between atoms: O6_6  and  C13_19 
ROOT
HETATM    1  O1  UNK   900      31.828 -45.089 -63.012  1.00  0.00    -0.306 OA
HETATM    2  O3  UNK   900      29.421 -48.234 -64.037  1.00  0.00    -0.286 OA
HETATM    3  C1  UNK   900      30.685 -47.148 -62.367  1.00  0.00     0.058 A 
HETATM    4  C2  UNK   900      31.499 -46.051 -62.088  1.00  0.00     0.127 A 
HETATM    5  C3  UNK   900      30.503 -46.255 -64.699  1.00  0.00     0.082 A 
HETATM    6  C4  UNK   900      30.396 -48.087 -61.374  1.00  0.00    -0.042 A 
HETATM    7  C5  UNK   900      30.140 -47.297 -63.725  1.00  0.00     0.201 A 
HETATM    8  C6  UNK   900      31.328 -45.210 -64.285  1.00  0.00     0.096 A 
HETATM    9  C7  UNK   900      32.028 -45.889 -60.806  1.00  0.00     0.136 A 
HETATM   10  C8  UNK   900      30.926 -47.921 -60.095  1.00  0.00     0.047 A 
HETATM   11  C9  UNK   900      30.033 -46.312 -66.013  1.00  0.00     0.085 A 
HETATM   12  C10 UNK   900      31.741 -46.825 -59.811  1.00  0.00     0.102 A 
HETATM   13  C11 UNK   900      31.685 -44.211 -65.193  1.00  0.00     0.075 A 
HETATM   14  C12 UNK   900      29.534 -49.289 -61.592  1.00  0.00     0.049 C 
HETATM   15  C13 UNK   900      31.218 -44.262 -66.506  1.00  0.00     0.073 A 
HETATM   16  C14 UNK   900      30.393 -45.310 -66.915  1.00  0.00     0.074 A 
ENDROOT
BRANCH   9  17
HETATM   17  O2  UNK   900      32.826 -44.821 -60.519  1.00  0.00    -0.351 OA
HETATM   18  C15 UNK   900      34.209 -44.944 -60.836  1.00  0.00     0.210 C 
ENDBRANCH   9  17
BRANCH  12  19
HETATM   19  O5  UNK   900      32.251 -46.678 -58.555  1.00  0.00    -0.358 OA
HETATM   20  H8  UNK   900      32.028 -47.464 -58.028  1.00  0.00     0.217 HD
ENDBRANCH  12  19
BRANCH  11  21
HETATM   21  O4  UNK   900      29.225 -47.310 -66.467  1.00  0.00    -0.360 OA
HETATM   22  H7  UNK   900      28.674 -46.993 -67.200  1.00  0.00     0.217 HD
ENDBRANCH  11  21
BRANCH  15  23
HETATM   23  O6  UNK   900      31.568 -43.287 -67.390  1.00  0.00    -0.356 OA
HETATM   24  C16 UNK   900      31.341 -41.937 -66.989  1.00  0.00     0.210 C 
ENDBRANCH  15  23
TORSDOF 4
ENDMDL
MODEL 2
REMARK VINA RESULT:      -6.8      1.280      5.775
REMARK  4 active torsions:
REMARK  status: ('A' for Active; 'I' for Inactive)
REMARK    1  A    between atoms: O2_2  and  C7_13 
REMARK    2  A    between atoms: O4_4  and  C9_15 
REMARK    3  A    between atoms: O5_5  and  C10_16 
REMARK    4  A    between atoms: O6_6  and  C13_19 
ROOT
HETATM    1  O1  UNK   900      31.846 -44.501 -63.333  1.00  0.00    -0.306 OA
HETATM    2  O3  UNK   900      30.045 -47.785 -64.979  1.00  0.00    -0.286 OA
HETATM    3  C1  UNK   900      30.916 -45.615 -65.297  1.00  0.00     0.058 A 
HETATM    4  C2  UNK   900      31.529 -44.532 -64.669  1.00  0.00     0.127 A 
HETATM    5  C3  UNK   900      30.932 -46.750 -63.065  1.00  0.00     0.082 A 
HETATM    6  C4  UNK   900      30.622 -45.571 -66.662  1.00  0.00    -0.042 A 
HETATM    7  C5  UNK   900      30.583 -46.802 -64.494  1.00  0.00     0.201 A 
HETATM    8  C6  UNK   900      31.545 -45.600 -62.567  1.00  0.00     0.096 A 
HETATM    9  C7  UNK   900      31.853 -43.395 -65.412  1.00  0.00     0.136 A 
HETATM   10  C8  UNK   900      30.949 -44.433 -67.400  1.00  0.00     0.047 A 
HETATM   11  C9  UNK   900      30.655 -47.829 -62.223  1.00  0.00     0.085 A 
HETATM   12  C10 UNK   900      31.563 -43.347 -66.776  1.00  0.00     0.102 A 
HETATM   13  C11 UNK   900      31.884 -45.529 -61.215  1.00  0.00     0.075 A 
HETATM   14  C12 UNK   900      29.967 -46.689 -67.408  1.00  0.00     0.049 C 
HETATM   15  C13 UNK   900      31.610 -46.605 -60.369  1.00  0.00     0.073 A 
HETATM   16  C14 UNK   900      30.998 -47.752 -60.872  1.00  0.00     0.074 A 
ENDROOT
BRANCH   9  17
HETATM   17  O2  UNK   900      32.454 -42.327 -64.812  1.00  0.00    -0.351 OA
HETATM   18  C15 UNK   900      33.879 -42.290 -64.838  1.00  0.00     0.210 C 
ENDBRANCH   9  17
BRANCH  12  19
HETATM   19  O5  UNK   900      31.875 -42.243 -67.512  1.00  0.00    -0.358 OA
HETATM   20  H8  UNK   900      32.835 -42.225 -67.665  1.00  0.00     0.217 HD
ENDBRANCH  12  19
BRANCH  11  21
HETATM   21  O4  UNK   900      30.060 -48.974 -62.659  1.00  0.00    -0.360 OA
HETATM   22  H7  UNK   900      30.724 -49.594 -62.998  1.00  0.00     0.217 HD
ENDBRANCH  11  21
BRANCH  15  23
HETATM   23  O6  UNK   900      31.942 -46.534 -59.051  1.00  0.00    -0.356 OA
HETATM   24  C16 UNK   900      32.202 -47.766 -58.379  1.00  0.00     0.210 C 
ENDBRANCH  15  23
TORSDOF 4
ENDMDL
MODEL 3
REMARK VINA RESULT:      -6.6      2.244      5.711
REMARK  4 active torsions:
REMARK  status: ('A' for Active; 'I' for Inactive)
REMARK    1  A    between atoms: O2_2  and  C7_13 
REMARK    2  A    between atoms: O4_4  and  C9_15 
REMARK    3  A    between atoms: O5_5  and  C10_16 
REMARK    4  A    between atoms: O6_6  and  C13_19 
ROOT
HETATM    1  O1  UNK   900      32.856 -44.871 -64.071  1.00  0.00    -0.306 OA
HETATM    2  O3  UNK   900      29.620 -43.816 -66.341  1.00  0.00    -0.286 OA
HETATM    3  C1  UNK   900      31.806 -43.301 -65.618  1.00  0.00     0.058 A 
HETATM    4  C2  UNK   900      32.871 -43.721 -64.823  1.00  0.00     0.127 A 
HETATM    5  C3  UNK   900      30.594 -45.354 -64.855  1.00  0.00     0.082 A 
HETATM    6  C4  UNK   900      31.894 -42.116 -66.354  1.00  0.00    -0.042 A 
HETATM    7  C5  UNK   900      30.589 -44.126 -65.666  1.00  0.00     0.201 A 
HETATM    8  C6  UNK   900      31.730 -45.656 -64.103  1.00  0.00     0.096 A 
HETATM    9  C7  UNK   900      34.035 -42.953 -64.762  1.00  0.00     0.136 A 
HETATM   10  C8  UNK   900      33.060 -41.353 -66.291  1.00  0.00     0.047 A 
HETATM   11  C9  UNK   900      29.484 -46.202 -64.837  1.00  0.00     0.085 A 
HETATM   12  C10 UNK   900      34.128 -41.769 -65.496  1.00  0.00     0.102 A 
HETATM   13  C11 UNK   900      31.756 -46.816 -63.327  1.00  0.00     0.075 A 
HETATM   14  C12 UNK   900      30.799 -41.597 -67.229  1.00  0.00     0.049 C 
HETATM   15  C13 UNK   900      30.650 -47.666 -63.306  1.00  0.00     0.073 A 
HETATM   16  C14 UNK   900      29.517 -47.361 -64.059  1.00  0.00     0.074 A 
ENDROOT
BRANCH   9  17
HETATM   17  O2  UNK   900      35.085 -43.352 -63.988  1.00  0.00    -0.351 OA
HETATM   18  C15 UNK   900      35.090 -42.916 -62.632  1.00  0.00     0.210 C 
ENDBRANCH   9  17
BRANCH  12  19
HETATM   19  O5  UNK   900      35.260 -41.011 -65.446  1.00  0.00    -0.358 OA
HETATM   20  H8  UNK   900      35.606 -40.897 -66.347  1.00  0.00     0.217 HD
ENDBRANCH  12  19
BRANCH  11  21
HETATM   21  O4  UNK   900      28.352 -45.954 -65.552  1.00  0.00    -0.360 OA
HETATM   22  H7  UNK   900      28.499 -46.136 -66.494  1.00  0.00     0.217 HD
ENDBRANCH  11  21
BRANCH  15  23
HETATM   23  O6  UNK   900      30.677 -48.797 -62.547  1.00  0.00    -0.356 OA
HETATM   24  C16 UNK   900      31.234 -49.967 -63.146  1.00  0.00     0.210 C 
ENDBRANCH  15  23
TORSDOF 4
ENDMDL
MODEL 4
REMARK VINA RESULT:      -6.0     26.163     27.303
REMARK  4 active torsions:
REMARK  status: ('A' for Active; 'I' for Inactive)
REMARK    1  A    between atoms: O2_2  and  C7_13 
REMARK    2  A    between atoms: O4_4  and  C9_15 
REMARK    3  A    between atoms: O5_5  and  C10_16 
REMARK    4  A    between atoms: O6_6  and  C13_19 
ROOT
HETATM    1  O1  UNK   900       9.811 -32.878 -74.289  1.00  0.00    -0.306 OA
HETATM    2  O3  UNK   900      10.149 -32.339 -70.247  1.00  0.00    -0.286 OA
HETATM    3  C1  UNK   900       9.308 -33.643 -72.025  1.00  0.00     0.058 A 
HETATM    4  C2  UNK   900       9.234 -33.764 -73.412  1.00  0.00     0.127 A 
HETATM    5  C3  UNK   900      10.658 -31.569 -72.409  1.00  0.00     0.082 A 
HETATM    6  C4  UNK   900       8.693 -34.585 -71.196  1.00  0.00    -0.042 A 
HETATM    7  C5  UNK   900      10.045 -32.506 -71.452  1.00  0.00     0.201 A 
HETATM    8  C6  UNK   900      10.504 -31.810 -73.774  1.00  0.00     0.096 A 
HETATM    9  C7  UNK   900       8.539 -34.835 -73.977  1.00  0.00     0.136 A 
HETATM   10  C8  UNK   900       8.000 -35.653 -71.766  1.00  0.00     0.047 A 
HETATM   11  C9  UNK   900      11.378 -30.460 -71.959  1.00  0.00     0.085 A 
HETATM   12  C10 UNK   900       7.923 -35.778 -73.153  1.00  0.00     0.102 A 
HETATM   13  C11 UNK   900      11.077 -30.934 -74.698  1.00  0.00     0.075 A 
HETATM   14  C12 UNK   900       8.726 -34.526 -69.703  1.00  0.00     0.049 C 
HETATM   15  C13 UNK   900      11.798 -29.825 -74.254  1.00  0.00     0.073 A 
HETATM   16  C14 UNK   900      11.948 -29.588 -72.888  1.00  0.00     0.074 A 
ENDROOT
BRANCH   9  17
HETATM   17  O2  UNK   900       8.458 -34.966 -75.332  1.00  0.00    -0.351 OA
HETATM   18  C15 UNK   900       7.245 -34.545 -75.950  1.00  0.00     0.210 C 
ENDBRANCH   9  17
BRANCH  12  19
HETATM   19  O5  UNK   900       7.242 -36.829 -73.692  1.00  0.00    -0.358 OA
HETATM   20  H8  UNK   900       7.788 -37.239 -74.384  1.00  0.00     0.217 HD
ENDBRANCH  12  19
BRANCH  11  21
HETATM   21  O4  UNK   900      11.557 -30.180 -70.639  1.00  0.00    -0.360 OA
HETATM   22  H7  UNK   900      11.165 -30.875 -70.088  1.00  0.00     0.217 HD
ENDBRANCH  11  21
BRANCH  15  23
HETATM   23  O6  UNK   900      12.355 -28.972 -75.158  1.00  0.00    -0.356 OA
HETATM   24  C16 UNK   900      11.749 -28.908 -76.449  1.00  0.00     0.210 C 
ENDBRANCH  15  23
TORSDOF 4
ENDMDL
MODEL 5
REMARK VINA RESULT:      -6.0      2.839      3.742
REMARK  4 active torsions:
REMARK  status: ('A' for Active; 'I' for Inactive)
REMARK    1  A    between atoms: O2_2  and  C7_13 
REMARK    2  A    between atoms: O4_4  and  C9_15 
REMARK    3  A    between atoms: O5_5  and  C10_16 
REMARK    4  A    between atoms: O6_6  and  C13_19 
ROOT
HETATM    1  O1  UNK   900      33.818 -47.970 -61.639  1.00  0.00    -0.306 OA
HETATM    2  O3  UNK   900      29.898 -47.569 -62.736  1.00  0.00    -0.286 OA
HETATM    3  C1  UNK   900      31.520 -48.789 -61.534  1.00  0.00     0.058 A 
HETATM    4  C2  UNK   900      32.872 -48.864 -61.201  1.00  0.00     0.127 A 
HETATM    5  C3  UNK   900      32.096 -46.746 -62.862  1.00  0.00     0.082 A 
HETATM    6  C4  UNK   900      30.616 -49.738 -61.050  1.00  0.00    -0.042 A 
HETATM    7  C5  UNK   900      31.066 -47.694 -62.405  1.00  0.00     0.201 A 
HETATM    8  C6  UNK   900      33.414 -46.940 -62.452  1.00  0.00     0.096 A 
HETATM    9  C7  UNK   900      33.325 -49.895 -60.376  1.00  0.00     0.136 A 
HETATM   10  C8  UNK   900      31.074 -50.766 -60.226  1.00  0.00     0.047 A 
HETATM   11  C9  UNK   900      31.760 -45.673 -63.692  1.00  0.00     0.085 A 
HETATM   12  C10 UNK   900      32.425 -50.845 -59.890  1.00  0.00     0.102 A 
HETATM   13  C11 UNK   900      34.406 -46.053 -62.874  1.00  0.00     0.075 A 
HETATM   14  C12 UNK   900      29.154 -49.727 -61.361  1.00  0.00     0.049 C 
HETATM   15  C13 UNK   900      34.076 -44.980 -63.702  1.00  0.00     0.073 A 
HETATM   16  C14 UNK   900      32.756 -44.790 -64.110  1.00  0.00     0.074 A 
ENDROOT
BRANCH   9  17
HETATM   17  O2  UNK   900      34.645 -49.981 -60.041  1.00  0.00    -0.351 OA
HETATM   18  C15 UNK   900      35.464 -50.814 -60.856  1.00  0.00     0.210 C 
ENDBRANCH   9  17
BRANCH  12  19
HETATM   19  O5  UNK   900      32.855 -51.856 -59.083  1.00  0.00    -0.358 OA
HETATM   20  H8  UNK   900      32.411 -51.786 -58.221  1.00  0.00     0.217 HD
ENDBRANCH  12  19
BRANCH  11  21
HETATM   21  O4  UNK   900      30.489 -45.439 -64.120  1.00  0.00    -0.360 OA
HETATM   22  H7  UNK   900      30.163 -46.188 -64.644  1.00  0.00     0.217 HD
ENDBRANCH  11  21
BRANCH  15  23
HETATM   23  O6  UNK   900      35.046 -44.116 -64.113  1.00  0.00    -0.356 OA
HETATM   24  C16 UNK   900      35.156 -42.880 -63.408  1.00  0.00     0.210 C 
ENDBRANCH  15  23
TORSDOF 4
ENDMDL
MODEL 6
REMARK VINA RESULT:      -5.8     35.069     36.016
REMARK  4 active torsions:
REMARK  status: ('A' for Active; 'I' for Inactive)
REMARK    1  A    between atoms: O2_2  and  C7_13 
REMARK    2  A    between atoms: O4_4  and  C9_15 
REMARK    3  A    between atoms: O5_5  and  C10_16 
REMARK    4  A    between atoms: O6_6  and  C13_19 
ROOT
HETATM    1  O1  UNK   900      -1.053 -52.094 -49.192  1.00  0.00    -0.306 OA
HETATM    2  O3  UNK   900       0.173 -55.993 -49.382  1.00  0.00    -0.286 OA
HETATM    3  C1  UNK   900      -0.686 -54.112 -50.518  1.00  0.00     0.058 A 
HETATM    4  C2  UNK   900      -1.088 -52.784 -50.380  1.00  0.00     0.127 A 
HETATM    5  C3  UNK   900      -0.163 -54.072 -48.070  1.00  0.00     0.082 A 
HETATM    6  C4  UNK   900      -0.752 -54.748 -51.760  1.00  0.00    -0.042 A 
HETATM    7  C5  UNK   900      -0.194 -54.829 -49.332  1.00  0.00     0.201 A 
HETATM    8  C6  UNK   900      -0.596 -52.746 -48.073  1.00  0.00     0.096 A 
HETATM    9  C7  UNK   900      -1.559 -52.084 -51.492  1.00  0.00     0.136 A 
HETATM   10  C8  UNK   900      -1.223 -54.044 -52.869  1.00  0.00     0.047 A 
HETATM   11  C9  UNK   900       0.289 -54.669 -46.890  1.00  0.00     0.085 A 
HETATM   12  C10 UNK   900      -1.626 -52.715 -52.735  1.00  0.00     0.102 A 
HETATM   13  C11 UNK   900      -0.575 -52.010 -46.888  1.00  0.00     0.075 A 
HETATM   14  C12 UNK   900      -0.342 -56.166 -51.991  1.00  0.00     0.049 C 
HETATM   15  C13 UNK   900      -0.124 -52.602 -45.707  1.00  0.00     0.073 A 
HETATM   16  C14 UNK   900       0.307 -53.928 -45.708  1.00  0.00     0.074 A 
ENDROOT
BRANCH   9  17
HETATM   17  O2  UNK   900      -1.955 -50.784 -51.372  1.00  0.00    -0.351 OA
HETATM   18  C15 UNK   900      -3.333 -50.552 -51.095  1.00  0.00     0.210 C 
ENDBRANCH   9  17
BRANCH  12  19
HETATM   19  O5  UNK   900      -2.083 -52.042 -53.829  1.00  0.00    -0.358 OA
HETATM   20  H8  UNK   900      -2.356 -51.148 -53.561  1.00  0.00     0.217 HD
ENDBRANCH  12  19
BRANCH  11  21
HETATM   21  O4  UNK   900       0.722 -55.959 -46.833  1.00  0.00    -0.360 OA
HETATM   22  H7  UNK   900       0.363 -56.403 -46.049  1.00  0.00     0.217 HD
ENDBRANCH  11  21
BRANCH  15  23
HETATM   23  O6  UNK   900      -0.105 -51.881 -44.551  1.00  0.00    -0.356 OA
HETATM   24  C16 UNK   900       1.081 -51.140 -44.268  1.00  0.00     0.210 C 
ENDBRANCH  15  23
TORSDOF 4
ENDMDL
MODEL 7
REMARK VINA RESULT:      -5.7      3.288      5.285
REMARK  4 active torsions:
REMARK  status: ('A' for Active; 'I' for Inactive)
REMARK    1  A    between atoms: O2_2  and  C7_13 
REMARK    2  A    between atoms: O4_4  and  C9_15 
REMARK    3  A    between atoms: O5_5  and  C10_16 
REMARK    4  A    between atoms: O6_6  and  C13_19 
ROOT
HETATM    1  O1  UNK   900      34.368 -47.920 -60.617  1.00  0.00    -0.306 OA
HETATM    2  O3  UNK   900      32.220 -45.268 -62.873  1.00  0.00    -0.286 OA
HETATM    3  C1  UNK   900      32.201 -47.033 -61.308  1.00  0.00     0.058 A 
HETATM    4  C2  UNK   900      32.995 -47.908 -60.568  1.00  0.00     0.127 A 
HETATM    5  C3  UNK   900      34.327 -46.090 -62.234  1.00  0.00     0.082 A 
HETATM    6  C4  UNK   900      30.808 -47.082 -61.207  1.00  0.00    -0.042 A 
HETATM    7  C5  UNK   900      32.856 -46.062 -62.197  1.00  0.00     0.201 A 
HETATM    8  C6  UNK   900      34.999 -47.020 -61.440  1.00  0.00     0.096 A 
HETATM    9  C7  UNK   900      32.394 -48.839 -59.719  1.00  0.00     0.136 A 
HETATM   10  C8  UNK   900      30.212 -48.014 -60.356  1.00  0.00     0.047 A 
HETATM   11  C9  UNK   900      35.038 -45.205 -63.048  1.00  0.00     0.085 A 
HETATM   12  C10 UNK   900      31.003 -48.891 -59.614  1.00  0.00     0.102 A 
HETATM   13  C11 UNK   900      36.394 -47.064 -61.460  1.00  0.00     0.075 A 
HETATM   14  C12 UNK   900      29.887 -46.181 -61.965  1.00  0.00     0.049 C 
HETATM   15  C13 UNK   900      37.108 -46.181 -62.270  1.00  0.00     0.073 A 
HETATM   16  C14 UNK   900      36.432 -45.254 -63.062  1.00  0.00     0.074 A 
ENDROOT
BRANCH   9  17
HETATM   17  O2  UNK   900      33.159 -49.700 -58.989  1.00  0.00    -0.351 OA
HETATM   18  C15 UNK   900      33.463 -50.958 -59.585  1.00  0.00     0.210 C 
ENDBRANCH   9  17
BRANCH  12  19
HETATM   19  O5  UNK   900      30.405 -49.794 -58.788  1.00  0.00    -0.358 OA
HETATM   20  H8  UNK   900      31.088 -50.251 -58.268  1.00  0.00     0.217 HD
ENDBRANCH  12  19
BRANCH  11  21
HETATM   21  O4  UNK   900      34.430 -44.279 -63.840  1.00  0.00    -0.360 OA
HETATM   22  H7  UNK   900      35.015 -44.021 -64.570  1.00  0.00     0.217 HD
ENDBRANCH  11  21
BRANCH  15  23
HETATM   23  O6  UNK   900      38.469 -46.227 -62.288  1.00  0.00    -0.356 OA
HETATM   24  C16 UNK   900      39.159 -44.983 -62.404  1.00  0.00     0.210 C 
ENDBRANCH  15  23
TORSDOF 4
ENDMDL
MODEL 8
REMARK VINA RESULT:      -5.5     38.326     39.185
REMARK  4 active torsions:
REMARK  status: ('A' for Active; 'I' for Inactive)
REMARK    1  A    between atoms: O2_2  and  C7_13 
REMARK    2  A    between atoms: O4_4  and  C9_15 
REMARK    3  A    between atoms: O5_5  and  C10_16 
REMARK    4  A    between atoms: O6_6  and  C13_19 
ROOT
HETATM    1  O1  UNK   900       9.212 -49.002 -95.749  1.00  0.00    -0.306 OA
HETATM    2  O3  UNK   900      12.753 -47.213 -96.748  1.00  0.00    -0.286 OA
HETATM    3  C1  UNK   900      11.530 -49.214 -96.484  1.00  0.00     0.058 A 
HETATM    4  C2  UNK   900      10.295 -49.755 -96.131  1.00  0.00     0.127 A 
HETATM    5  C3  UNK   900      10.525 -46.964 -96.041  1.00  0.00     0.082 A 
HETATM    6  C4  UNK   900      12.588 -50.046 -96.862  1.00  0.00    -0.042 A 
HETATM    7  C5  UNK   900      11.698 -47.753 -96.452  1.00  0.00     0.201 A 
HETATM    8  C6  UNK   900       9.348 -47.636 -95.713  1.00  0.00     0.096 A 
HETATM    9  C7  UNK   900      10.114 -51.139 -96.155  1.00  0.00     0.136 A 
HETATM   10  C8  UNK   900      12.401 -51.428 -96.884  1.00  0.00     0.047 A 
HETATM   11  C9  UNK   900      10.589 -45.570 -95.979  1.00  0.00     0.085 A 
HETATM   12  C10 UNK   900      11.167 -51.974 -96.531  1.00  0.00     0.102 A 
HETATM   13  C11 UNK   900       8.224 -46.907 -95.320  1.00  0.00     0.075 A 
HETATM   14  C12 UNK   900      13.940 -49.545 -97.254  1.00  0.00     0.049 C 
HETATM   15  C13 UNK   900       8.282 -45.515 -95.258  1.00  0.00     0.073 A 
HETATM   16  C14 UNK   900       9.461 -44.847 -95.587  1.00  0.00     0.074 A 
ENDROOT
BRANCH   9  17
HETATM   17  O2  UNK   900       8.910 -51.683 -95.812  1.00  0.00    -0.351 OA
HETATM   18  C15 UNK   900       7.962 -51.864 -96.860  1.00  0.00     0.210 C 
ENDBRANCH   9  17
BRANCH  12  19
HETATM   19  O5  UNK   900      11.002 -53.326 -96.560  1.00  0.00    -0.358 OA
HETATM   20  H8  UNK   900      10.125 -53.547 -96.203  1.00  0.00     0.217 HD
ENDBRANCH  12  19
BRANCH  11  21
HETATM   21  O4  UNK   900      11.713 -44.866 -96.290  1.00  0.00    -0.360 OA
HETATM   22  H7  UNK   900      11.579 -44.355 -97.103  1.00  0.00     0.217 HD
ENDBRANCH  11  21
BRANCH  15  23
HETATM   23  O6  UNK   900       7.184 -44.806 -94.875  1.00  0.00    -0.356 OA
HETATM   24  C16 UNK   900       7.321 -43.966 -93.729  1.00  0.00     0.210 C 
ENDBRANCH  15  23
TORSDOF 4
ENDMDL
MODEL 9
REMARK VINA RESULT:      -5.5      3.695      4.410
REMARK  4 active torsions:
REMARK  status: ('A' for Active; 'I' for Inactive)
REMARK    1  A    between atoms: O2_2  and  C7_13 
REMARK    2  A    between atoms: O4_4  and  C9_15 
REMARK    3  A    between atoms: O5_5  and  C10_16 
REMARK    4  A    between atoms: O6_6  and  C13_19 
ROOT
HETATM    1  O1  UNK   900      33.559 -49.266 -63.005  1.00  0.00    -0.306 OA
HETATM    2  O3  UNK   900      31.560 -45.761 -63.681  1.00  0.00    -0.286 OA
HETATM    3  C1  UNK   900      31.847 -47.666 -62.319  1.00  0.00     0.058 A 
HETATM    4  C2  UNK   900      32.568 -48.847 -62.151  1.00  0.00     0.127 A 
HETATM    5  C3  UNK   900      33.218 -47.274 -64.376  1.00  0.00     0.082 A 
HETATM    6  C4  UNK   900      30.851 -47.307 -61.407  1.00  0.00    -0.042 A 
HETATM    7  C5  UNK   900      32.153 -46.808 -63.474  1.00  0.00     0.201 A 
HETATM    8  C6  UNK   900      33.860 -48.478 -64.089  1.00  0.00     0.096 A 
HETATM    9  C7  UNK   900      32.294 -49.677 -61.063  1.00  0.00     0.136 A 
HETATM   10  C8  UNK   900      30.581 -48.139 -60.321  1.00  0.00     0.047 A 
HETATM   11  C9  UNK   900      33.580 -46.526 -65.499  1.00  0.00     0.085 A 
HETATM   12  C10 UNK   900      31.300 -49.322 -60.148  1.00  0.00     0.102 A 
HETATM   13  C11 UNK   900      34.873 -48.939 -64.932  1.00  0.00     0.075 A 
HETATM   14  C12 UNK   900      30.034 -46.060 -61.516  1.00  0.00     0.049 C 
HETATM   15  C13 UNK   900      35.239 -48.195 -66.055  1.00  0.00     0.073 A 
HETATM   16  C14 UNK   900      34.594 -46.992 -66.338  1.00  0.00     0.074 A 
ENDROOT
BRANCH   9  17
HETATM   17  O2  UNK   900      32.992 -50.835 -60.885  1.00  0.00    -0.351 OA
HETATM   18  C15 UNK   900      34.164 -50.765 -60.078  1.00  0.00     0.210 C 
ENDBRANCH   9  17
BRANCH  12  19
HETATM   19  O5  UNK   900      31.023 -50.123 -59.081  1.00  0.00    -0.358 OA
HETATM   20  H8  UNK   900      31.552 -50.937 -59.149  1.00  0.00     0.217 HD
ENDBRANCH  12  19
BRANCH  11  21
HETATM   21  O4  UNK   900      32.986 -45.345 -65.824  1.00  0.00    -0.360 OA
HETATM   22  H7  UNK   900      33.439 -44.932 -66.576  1.00  0.00     0.217 HD
ENDBRANCH  11  21
BRANCH  15  23
HETATM   23  O6  UNK   900      36.227 -48.647 -66.876  1.00  0.00    -0.356 OA
HETATM   24  C16 UNK   900      35.856 -48.990 -68.210  1.00  0.00     0.210 C 
ENDBRANCH  15  23
TORSDOF 4
ENDMDL
