MODEL 1
REMARK VINA RESULT:      -6.0      0.000      0.000
REMARK  7 active torsions:
REMARK  status: ('A' for Active; 'I' for Inactive)
REMARK    1  A    between atoms: O1_1  and  C10_14 
REMARK    2  A    between atoms: O2_2  and  C11_15 
REMARK    3  A    between atoms: O3_3  and  C14_18 
REMARK    4  A    between atoms: O4_4  and  C15_19 
REMARK    5  A    between atoms: C2_6  and  C11_15 
REMARK    6  A    between atoms: C8_12  and  C14_18 
REMARK    7  A    between atoms: C9_13  and  C15_19 
ROOT
HETATM    1  C1  UNK   900      31.726 -49.370 -61.901  1.00  0.00     0.019 C 
HETATM    2  C2  UNK   900      33.300 -50.352 -60.312  1.00  0.00    -0.018 C 
HETATM    3  C3  UNK   900      32.192 -50.715 -61.306  1.00  0.00     0.021 C 
HETATM    4  C4  UNK   900      32.043 -48.360 -60.811  1.00  0.00    -0.070 C 
HETATM    5  C5  UNK   900      30.267 -49.420 -62.399  1.00  0.00    -0.008 C 
HETATM    6  C6  UNK   900      32.745 -49.070 -59.673  1.00  0.00     0.046 C 
HETATM    7  C7  UNK   900      29.918 -48.210 -63.280  1.00  0.00     0.037 C 
HETATM    8  C8  UNK   900      31.828 -47.027 -60.873  1.00  0.00    -0.045 C 
HETATM    9  C9  UNK   900      31.246 -46.305 -62.081  1.00  0.00     0.069 C 
HETATM   10  C10 UNK   900      29.893 -46.849 -62.581  1.00  0.00     0.128 C 
HETATM   11  C12 UNK   900      34.638 -50.092 -61.029  1.00  0.00     0.018 C 
HETATM   12  C13 UNK   900      29.223 -49.608 -61.288  1.00  0.00     0.011 C 
ENDROOT
BRANCH   2  13
HETATM   13  C11 UNK   900      33.502 -51.455 -59.269  1.00  0.00     0.173 C 
BRANCH  13  14
HETATM   14  O2  UNK   900      32.254 -52.080 -59.036  1.00  0.00    -0.400 OA
HETATM   15  H24 UNK   900      31.735 -51.999 -59.854  1.00  0.00     0.209 HD
ENDBRANCH  13  14
ENDBRANCH   2  13
BRANCH   8  16
HETATM   16  C14 UNK   900      32.179 -46.099 -59.733  1.00  0.00     0.199 C 
BRANCH  16  17
HETATM   17  O3  UNK   900      31.803 -44.782 -60.072  1.00  0.00    -0.397 OA
HETATM   18  H25 UNK   900      31.009 -44.841 -60.630  1.00  0.00     0.209 HD
ENDBRANCH  16  17
ENDBRANCH   8  16
BRANCH   9  19
HETATM   19  C15 UNK   900      32.297 -46.138 -63.189  1.00  0.00     0.175 C 
BRANCH  19  20
HETATM   20  O4  UNK   900      32.180 -44.831 -63.714  1.00  0.00    -0.400 OA
HETATM   21  H26 UNK   900      31.237 -44.600 -63.702  1.00  0.00     0.209 HD
ENDBRANCH  19  20
ENDBRANCH   9  19
BRANCH  10  22
HETATM   22  O1  UNK   900      29.362 -45.892 -63.509  1.00  0.00    -0.395 OA
HETATM   23  H23 UNK   900      29.366 -45.024 -63.072  1.00  0.00     0.210 HD
ENDBRANCH  10  22
TORSDOF 7
ENDMDL
MODEL 2
REMARK VINA RESULT:      -5.8     10.681     13.167
REMARK  7 active torsions:
REMARK  status: ('A' for Active; 'I' for Inactive)
REMARK    1  A    between atoms: O1_1  and  C10_14 
REMARK    2  A    between atoms: O2_2  and  C11_15 
REMARK    3  A    between atoms: O3_3  and  C14_18 
REMARK    4  A    between atoms: O4_4  and  C15_19 
REMARK    5  A    between atoms: C2_6  and  C11_15 
REMARK    6  A    between atoms: C8_12  and  C14_18 
REMARK    7  A    between atoms: C9_13  and  C15_19 
ROOT
HETATM    1  C1  UNK   900      34.722 -36.454 -56.696  1.00  0.00     0.019 C 
HETATM    2  C2  UNK   900      35.577 -34.915 -58.389  1.00  0.00    -0.018 C 
HETATM    3  C3  UNK   900      34.476 -35.072 -57.334  1.00  0.00     0.021 C 
HETATM    4  C4  UNK   900      35.423 -37.242 -57.791  1.00  0.00    -0.070 C 
HETATM    5  C5  UNK   900      33.436 -37.071 -56.111  1.00  0.00    -0.008 C 
HETATM    6  C6  UNK   900      35.655 -36.332 -58.978  1.00  0.00     0.046 C 
HETATM    7  C7  UNK   900      33.736 -38.269 -55.195  1.00  0.00     0.037 C 
HETATM    8  C8  UNK   900      35.859 -38.517 -57.700  1.00  0.00    -0.045 C 
HETATM    9  C9  UNK   900      35.741 -39.380 -56.450  1.00  0.00     0.069 C 
HETATM   10  C10 UNK   900      34.316 -39.510 -55.875  1.00  0.00     0.128 C 
HETATM   11  C12 UNK   900      36.914 -34.493 -57.752  1.00  0.00     0.018 C 
HETATM   12  C13 UNK   900      32.373 -37.435 -57.159  1.00  0.00     0.011 C 
ENDROOT
BRANCH   2  13
HETATM   13  C11 UNK   900      35.189 -33.887 -59.456  1.00  0.00     0.173 C 
BRANCH  13  14
HETATM   14  O2  UNK   900      33.937 -34.261 -59.999  1.00  0.00    -0.400 OA
HETATM   15  H24 UNK   900      34.085 -35.056 -60.540  1.00  0.00     0.209 HD
ENDBRANCH  13  14
ENDBRANCH   2  13
BRANCH   8  16
HETATM   16  C14 UNK   900      36.548 -39.219 -58.847  1.00  0.00     0.199 C 
BRANCH  16  17
HETATM   17  O3  UNK   900      35.591 -39.559 -59.827  1.00  0.00    -0.397 OA
HETATM   18  H25 UNK   900      35.587 -38.846 -60.488  1.00  0.00     0.209 HD
ENDBRANCH  16  17
ENDBRANCH   8  16
BRANCH   9  19
HETATM   19  C15 UNK   900      36.800 -38.994 -55.405  1.00  0.00     0.175 C 
BRANCH  19  20
HETATM   20  O4  UNK   900      36.971 -40.088 -54.527  1.00  0.00    -0.400 OA
HETATM   21  H26 UNK   900      36.866 -39.749 -53.622  1.00  0.00     0.209 HD
ENDBRANCH  19  20
ENDBRANCH   9  19
BRANCH  10  22
HETATM   22  O1  UNK   900      34.340 -40.567 -54.905  1.00  0.00    -0.395 OA
HETATM   23  H23 UNK   900      34.752 -40.217 -54.097  1.00  0.00     0.210 HD
ENDBRANCH  10  22
TORSDOF 7
ENDMDL
MODEL 3
REMARK VINA RESULT:      -5.6      1.998      5.032
REMARK  7 active torsions:
REMARK  status: ('A' for Active; 'I' for Inactive)
REMARK    1  A    between atoms: O1_1  and  C10_14 
REMARK    2  A    between atoms: O2_2  and  C11_15 
REMARK    3  A    between atoms: O3_3  and  C14_18 
REMARK    4  A    between atoms: O4_4  and  C15_19 
REMARK    5  A    between atoms: C2_6  and  C11_15 
REMARK    6  A    between atoms: C8_12  and  C14_18 
REMARK    7  A    between atoms: C9_13  and  C15_19 
ROOT
HETATM    1  C1  UNK   900      30.965 -46.929 -62.141  1.00  0.00     0.019 C 
HETATM    2  C2  UNK   900      32.174 -45.434 -63.648  1.00  0.00    -0.018 C 
HETATM    3  C3  UNK   900      30.822 -46.129 -63.452  1.00  0.00     0.021 C 
HETATM    4  C4  UNK   900      32.456 -47.209 -62.045  1.00  0.00    -0.070 C 
HETATM    5  C5  UNK   900      30.025 -48.150 -62.090  1.00  0.00    -0.008 C 
HETATM    6  C6  UNK   900      33.159 -46.525 -63.198  1.00  0.00     0.046 C 
HETATM    7  C7  UNK   900      29.924 -48.741 -60.674  1.00  0.00     0.037 C 
HETATM    8  C8  UNK   900      33.079 -47.875 -61.048  1.00  0.00    -0.045 C 
HETATM    9  C9  UNK   900      32.376 -48.441 -59.820  1.00  0.00     0.069 C 
HETATM   10  C10 UNK   900      31.196 -49.387 -60.119  1.00  0.00     0.128 C 
HETATM   11  C12 UNK   900      32.291 -44.172 -62.774  1.00  0.00     0.018 C 
HETATM   12  C13 UNK   900      30.348 -49.244 -63.118  1.00  0.00     0.011 C 
ENDROOT
BRANCH   2  13
HETATM   13  C11 UNK   900      32.399 -45.048 -65.112  1.00  0.00     0.173 C 
BRANCH  13  14
HETATM   14  O2  UNK   900      31.305 -45.526 -65.872  1.00  0.00    -0.400 OA
HETATM   15  H24 UNK   900      31.334 -45.074 -66.732  1.00  0.00     0.209 HD
ENDBRANCH  13  14
ENDBRANCH   2  13
BRANCH   8  16
HETATM   16  C14 UNK   900      34.572 -48.104 -61.040  1.00  0.00     0.199 C 
BRANCH  16  17
HETATM   17  O3  UNK   900      35.204 -47.037 -60.365  1.00  0.00    -0.397 OA
HETATM   18  H25 UNK   900      35.884 -47.423 -59.787  1.00  0.00     0.209 HD
ENDBRANCH  16  17
ENDBRANCH   8  16
BRANCH   9  19
HETATM   19  C15 UNK   900      32.045 -47.333 -58.809  1.00  0.00     0.175 C 
BRANCH  19  20
HETATM   20  O4  UNK   900      32.416 -47.786 -57.522  1.00  0.00    -0.400 OA
HETATM   21  H26 UNK   900      32.066 -47.147 -56.880  1.00  0.00     0.209 HD
ENDBRANCH  19  20
ENDBRANCH   9  19
BRANCH  10  22
HETATM   22  O1  UNK   900      30.850 -50.043 -58.891  1.00  0.00    -0.395 OA
HETATM   23  H23 UNK   900      30.780 -49.361 -58.201  1.00  0.00     0.210 HD
ENDBRANCH  10  22
TORSDOF 7
ENDMDL
MODEL 4
REMARK VINA RESULT:      -5.6      2.257      5.390
REMARK  7 active torsions:
REMARK  status: ('A' for Active; 'I' for Inactive)
REMARK    1  A    between atoms: O1_1  and  C10_14 
REMARK    2  A    between atoms: O2_2  and  C11_15 
REMARK    3  A    between atoms: O3_3  and  C14_18 
REMARK    4  A    between atoms: O4_4  and  C15_19 
REMARK    5  A    between atoms: C2_6  and  C11_15 
REMARK    6  A    between atoms: C8_12  and  C14_18 
REMARK    7  A    between atoms: C9_13  and  C15_19 
ROOT
HETATM    1  C1  UNK   900      31.847 -46.045 -61.224  1.00  0.00     0.019 C 
HETATM    2  C2  UNK   900      33.495 -44.483 -62.126  1.00  0.00    -0.018 C 
HETATM    3  C3  UNK   900      32.042 -44.574 -61.645  1.00  0.00     0.021 C 
HETATM    4  C4  UNK   900      32.854 -46.803 -62.073  1.00  0.00    -0.070 C 
HETATM    5  C5  UNK   900      30.376 -46.495 -61.323  1.00  0.00    -0.008 C 
HETATM    6  C6  UNK   900      33.661 -45.811 -62.882  1.00  0.00     0.046 C 
HETATM    7  C7  UNK   900      30.132 -47.829 -60.598  1.00  0.00     0.037 C 
HETATM    8  C8  UNK   900      33.072 -48.137 -62.049  1.00  0.00    -0.045 C 
HETATM    9  C9  UNK   900      32.346 -49.111 -61.129  1.00  0.00     0.069 C 
HETATM   10  C10 UNK   900      30.808 -49.061 -61.204  1.00  0.00     0.128 C 
HETATM   11  C12 UNK   900      34.476 -44.379 -60.944  1.00  0.00     0.018 C 
HETATM   12  C13 UNK   900      29.820 -46.540 -62.754  1.00  0.00     0.011 C 
ENDROOT
BRANCH   2  13
HETATM   13  C11 UNK   900      33.704 -43.282 -63.054  1.00  0.00     0.173 C 
BRANCH  13  14
HETATM   14  O2  UNK   900      34.009 -42.153 -62.257  1.00  0.00    -0.400 OA
HETATM   15  H24 UNK   900      33.510 -41.402 -62.622  1.00  0.00     0.209 HD
ENDBRANCH  13  14
ENDBRANCH   2  13
BRANCH   8  16
HETATM   16  C14 UNK   900      34.099 -48.803 -62.934  1.00  0.00     0.199 C 
BRANCH  16  17
HETATM   17  O3  UNK   900      33.469 -49.283 -64.101  1.00  0.00    -0.397 OA
HETATM   18  H25 UNK   900      33.627 -50.241 -64.143  1.00  0.00     0.209 HD
ENDBRANCH  16  17
ENDBRANCH   8  16
BRANCH   9  19
HETATM   19  C15 UNK   900      32.902 -49.043 -59.698  1.00  0.00     0.175 C 
BRANCH  19  20
HETATM   20  O4  UNK   900      32.917 -50.353 -59.169  1.00  0.00    -0.400 OA
HETATM   21  H26 UNK   900      33.755 -50.460 -58.689  1.00  0.00     0.209 HD
ENDBRANCH  19  20
ENDBRANCH   9  19
BRANCH  10  22
HETATM   22  O1  UNK   900      30.307 -50.215 -60.514  1.00  0.00    -0.395 OA
HETATM   23  H23 UNK   900      30.237 -49.988 -59.571  1.00  0.00     0.210 HD
ENDBRANCH  10  22
TORSDOF 7
ENDMDL
MODEL 5
REMARK VINA RESULT:      -5.5      2.420      5.414
REMARK  7 active torsions:
REMARK  status: ('A' for Active; 'I' for Inactive)
REMARK    1  A    between atoms: O1_1  and  C10_14 
REMARK    2  A    between atoms: O2_2  and  C11_15 
REMARK    3  A    between atoms: O3_3  and  C14_18 
REMARK    4  A    between atoms: O4_4  and  C15_19 
REMARK    5  A    between atoms: C2_6  and  C11_15 
REMARK    6  A    between atoms: C8_12  and  C14_18 
REMARK    7  A    between atoms: C9_13  and  C15_19 
ROOT
HETATM    1  C1  UNK   900      30.727 -46.992 -62.310  1.00  0.00     0.019 C 
HETATM    2  C2  UNK   900      30.566 -46.032 -64.550  1.00  0.00    -0.018 C 
HETATM    3  C3  UNK   900      29.737 -46.346 -63.300  1.00  0.00     0.021 C 
HETATM    4  C4  UNK   900      31.785 -47.615 -63.205  1.00  0.00    -0.070 C 
HETATM    5  C5  UNK   900      30.027 -47.930 -61.305  1.00  0.00    -0.008 C 
HETATM    6  C6  UNK   900      31.474 -47.268 -64.646  1.00  0.00     0.046 C 
HETATM    7  C7  UNK   900      30.946 -48.303 -60.129  1.00  0.00     0.037 C 
HETATM    8  C8  UNK   900      32.881 -48.288 -62.793  1.00  0.00    -0.045 C 
HETATM    9  C9  UNK   900      33.256 -48.513 -61.334  1.00  0.00     0.069 C 
HETATM   10  C10 UNK   900      32.161 -49.169 -60.470  1.00  0.00     0.128 C 
HETATM   11  C12 UNK   900      31.387 -44.741 -64.373  1.00  0.00     0.018 C 
HETATM   12  C13 UNK   900      29.407 -49.186 -61.935  1.00  0.00     0.011 C 
ENDROOT
BRANCH   2  13
HETATM   13  C11 UNK   900      29.680 -45.893 -65.791  1.00  0.00     0.173 C 
BRANCH  13  14
HETATM   14  O2  UNK   900      28.660 -44.954 -65.507  1.00  0.00    -0.400 OA
HETATM   15  H24 UNK   900      28.654 -44.308 -66.233  1.00  0.00     0.209 HD
ENDBRANCH  13  14
ENDBRANCH   2  13
BRANCH   8  16
HETATM   16  C14 UNK   900      33.881 -48.873 -63.763  1.00  0.00     0.199 C 
BRANCH  16  17
HETATM   17  O3  UNK   900      34.851 -49.607 -63.047  1.00  0.00    -0.397 OA
HETATM   18  H25 UNK   900      34.485 -49.786 -62.164  1.00  0.00     0.209 HD
ENDBRANCH  16  17
ENDBRANCH   8  16
BRANCH   9  19
HETATM   19  C15 UNK   900      33.860 -47.243 -60.713  1.00  0.00     0.175 C 
BRANCH  19  20
HETATM   20  O4  UNK   900      35.030 -47.611 -60.011  1.00  0.00    -0.400 OA
HETATM   21  H26 UNK   900      35.287 -48.495 -60.322  1.00  0.00     0.209 HD
ENDBRANCH  19  20
ENDBRANCH   9  19
BRANCH  10  22
HETATM   22  O1  UNK   900      32.770 -49.567 -59.234  1.00  0.00    -0.395 OA
HETATM   23  H23 UNK   900      32.761 -50.539 -59.200  1.00  0.00     0.210 HD
ENDBRANCH  10  22
TORSDOF 7
ENDMDL
MODEL 6
REMARK VINA RESULT:      -5.5     28.717     30.320
REMARK  7 active torsions:
REMARK  status: ('A' for Active; 'I' for Inactive)
REMARK    1  A    between atoms: O1_1  and  C10_14 
REMARK    2  A    between atoms: O2_2  and  C11_15 
REMARK    3  A    between atoms: O3_3  and  C14_18 
REMARK    4  A    between atoms: O4_4  and  C15_19 
REMARK    5  A    between atoms: C2_6  and  C11_15 
REMARK    6  A    between atoms: C8_12  and  C14_18 
REMARK    7  A    between atoms: C9_13  and  C15_19 
ROOT
HETATM    1  C1  UNK   900      25.761 -21.906 -75.939  1.00  0.00     0.019 C 
HETATM    2  C2  UNK   900      27.262 -20.208 -75.027  1.00  0.00    -0.018 C 
HETATM    3  C3  UNK   900      27.042 -21.105 -76.250  1.00  0.00     0.021 C 
HETATM    4  C4  UNK   900      25.723 -21.957 -74.421  1.00  0.00    -0.070 C 
HETATM    5  C5  UNK   900      25.715 -23.257 -76.681  1.00  0.00    -0.008 C 
HETATM    6  C6  UNK   900      26.878 -21.146 -73.873  1.00  0.00     0.046 C 
HETATM    7  C7  UNK   900      24.315 -23.890 -76.638  1.00  0.00     0.037 C 
HETATM    8  C8  UNK   900      24.767 -22.545 -73.667  1.00  0.00    -0.045 C 
HETATM    9  C9  UNK   900      23.535 -23.242 -74.230  1.00  0.00     0.069 C 
HETATM   10  C10 UNK   900      23.822 -24.348 -75.264  1.00  0.00     0.128 C 
HETATM   11  C12 UNK   900      26.355 -18.964 -75.070  1.00  0.00     0.018 C 
HETATM   12  C13 UNK   900      26.786 -24.263 -76.234  1.00  0.00     0.011 C 
ENDROOT
BRANCH   2  13
HETATM   13  C11 UNK   900      28.721 -19.756 -74.918  1.00  0.00     0.173 C 
BRANCH  13  14
HETATM   14  O2  UNK   900      29.393 -20.131 -76.105  1.00  0.00    -0.400 OA
HETATM   15  H24 UNK   900      29.573 -19.315 -76.603  1.00  0.00     0.209 HD
ENDBRANCH  13  14
ENDBRANCH   2  13
BRANCH   8  16
HETATM   16  C14 UNK   900      24.816 -22.543 -72.157  1.00  0.00     0.199 C 
BRANCH  16  17
HETATM   17  O3  UNK   900      23.559 -22.935 -71.650  1.00  0.00    -0.397 OA
HETATM   18  H25 UNK   900      23.714 -23.650 -71.009  1.00  0.00     0.209 HD
ENDBRANCH  16  17
ENDBRANCH   8  16
BRANCH   9  19
HETATM   19  C15 UNK   900      22.480 -22.222 -74.687  1.00  0.00     0.175 C 
BRANCH  19  20
HETATM   20  O4  UNK   900      21.226 -22.872 -74.722  1.00  0.00    -0.400 OA
HETATM   21  H26 UNK   900      21.053 -23.115 -75.647  1.00  0.00     0.209 HD
ENDBRANCH  19  20
ENDBRANCH   9  19
BRANCH  10  22
HETATM   22  O1  UNK   900      22.603 -25.079 -75.460  1.00  0.00    -0.395 OA
HETATM   23  H23 UNK   900      22.279 -24.877 -76.354  1.00  0.00     0.210 HD
ENDBRANCH  10  22
TORSDOF 7
ENDMDL
MODEL 7
REMARK VINA RESULT:      -5.5      2.307      5.241
REMARK  7 active torsions:
REMARK  status: ('A' for Active; 'I' for Inactive)
REMARK    1  A    between atoms: O1_1  and  C10_14 
REMARK    2  A    between atoms: O2_2  and  C11_15 
REMARK    3  A    between atoms: O3_3  and  C14_18 
REMARK    4  A    between atoms: O4_4  and  C15_19 
REMARK    5  A    between atoms: C2_6  and  C11_15 
REMARK    6  A    between atoms: C8_12  and  C14_18 
REMARK    7  A    between atoms: C9_13  and  C15_19 
ROOT
HETATM    1  C1  UNK   900      33.326 -47.102 -61.047  1.00  0.00     0.019 C 
HETATM    2  C2  UNK   900      34.386 -46.640 -63.198  1.00  0.00    -0.018 C 
HETATM    3  C3  UNK   900      34.238 -46.094 -61.774  1.00  0.00     0.021 C 
HETATM    4  C4  UNK   900      32.496 -47.715 -62.163  1.00  0.00    -0.070 C 
HETATM    5  C5  UNK   900      32.552 -46.461 -59.878  1.00  0.00    -0.008 C 
HETATM    6  C6  UNK   900      32.967 -47.155 -63.488  1.00  0.00     0.046 C 
HETATM    7  C7  UNK   900      31.914 -47.517 -58.960  1.00  0.00     0.037 C 
HETATM    8  C8  UNK   900      31.555 -48.673 -62.022  1.00  0.00    -0.045 C 
HETATM    9  C9  UNK   900      31.184 -49.328 -60.697  1.00  0.00     0.069 C 
HETATM   10  C10 UNK   900      30.788 -48.352 -59.572  1.00  0.00     0.128 C 
HETATM   11  C12 UNK   900      35.423 -47.776 -63.262  1.00  0.00     0.018 C 
HETATM   12  C13 UNK   900      31.517 -45.408 -60.304  1.00  0.00     0.011 C 
ENDROOT
BRANCH   2  13
HETATM   13  C11 UNK   900      34.793 -45.539 -64.182  1.00  0.00     0.173 C 
BRANCH  13  14
HETATM   14  O2  UNK   900      36.007 -44.968 -63.734  1.00  0.00    -0.400 OA
HETATM   15  H24 UNK   900      36.702 -45.248 -64.353  1.00  0.00     0.209 HD
ENDBRANCH  13  14
ENDBRANCH   2  13
BRANCH   8  16
HETATM   16  C14 UNK   900      30.779 -49.222 -63.197  1.00  0.00     0.199 C 
BRANCH  16  17
HETATM   17  O3  UNK   900      31.525 -50.251 -63.809  1.00  0.00    -0.397 OA
HETATM   18  H25 UNK   900      30.917 -50.992 -63.973  1.00  0.00     0.209 HD
ENDBRANCH  16  17
ENDBRANCH   8  16
BRANCH   9  19
HETATM   19  C15 UNK   900      32.237 -50.366 -60.277  1.00  0.00     0.175 C 
BRANCH  19  20
HETATM   20  O4  UNK   900      31.629 -51.267 -59.373  1.00  0.00    -0.400 OA
HETATM   21  H26 UNK   900      32.317 -51.889 -59.081  1.00  0.00     0.209 HD
ENDBRANCH  19  20
ENDBRANCH   9  19
BRANCH  10  22
HETATM   22  O1  UNK   900      30.200 -49.128 -58.518  1.00  0.00    -0.395 OA
HETATM   23  H23 UNK   900      29.240 -48.972 -58.538  1.00  0.00     0.210 HD
ENDBRANCH  10  22
TORSDOF 7
ENDMDL
MODEL 8
REMARK VINA RESULT:      -5.5      2.471      4.357
REMARK  7 active torsions:
REMARK  status: ('A' for Active; 'I' for Inactive)
REMARK    1  A    between atoms: O1_1  and  C10_14 
REMARK    2  A    between atoms: O2_2  and  C11_15 
REMARK    3  A    between atoms: O3_3  and  C14_18 
REMARK    4  A    between atoms: O4_4  and  C15_19 
REMARK    5  A    between atoms: C2_6  and  C11_15 
REMARK    6  A    between atoms: C8_12  and  C14_18 
REMARK    7  A    between atoms: C9_13  and  C15_19 
ROOT
HETATM    1  C1  UNK   900      33.782 -48.565 -62.008  1.00  0.00     0.019 C 
HETATM    2  C2  UNK   900      36.002 -49.522 -62.361  1.00  0.00    -0.018 C 
HETATM    3  C3  UNK   900      34.914 -48.689 -63.048  1.00  0.00     0.021 C 
HETATM    4  C4  UNK   900      33.944 -49.804 -61.143  1.00  0.00    -0.070 C 
HETATM    5  C5  UNK   900      32.402 -48.348 -62.662  1.00  0.00    -0.008 C 
HETATM    6  C6  UNK   900      35.168 -50.567 -61.602  1.00  0.00     0.046 C 
HETATM    7  C7  UNK   900      31.346 -47.895 -61.641  1.00  0.00     0.037 C 
HETATM    8  C8  UNK   900      33.184 -50.135 -60.076  1.00  0.00    -0.045 C 
HETATM    9  C9  UNK   900      32.037 -49.287 -59.540  1.00  0.00     0.069 C 
HETATM   10  C10 UNK   900      30.955 -48.920 -60.573  1.00  0.00     0.128 C 
HETATM   11  C12 UNK   900      36.845 -48.665 -61.399  1.00  0.00     0.018 C 
HETATM   12  C13 UNK   900      31.894 -49.544 -63.482  1.00  0.00     0.011 C 
ENDROOT
BRANCH   2  13
HETATM   13  C11 UNK   900      36.931 -50.184 -63.382  1.00  0.00     0.173 C 
BRANCH  13  14
HETATM   14  O2  UNK   900      36.827 -51.587 -63.235  1.00  0.00    -0.400 OA
HETATM   15  H24 UNK   900      37.283 -51.990 -63.993  1.00  0.00     0.209 HD
ENDBRANCH  13  14
ENDBRANCH   2  13
BRANCH   8  16
HETATM   16  C14 UNK   900      33.423 -51.393 -59.275  1.00  0.00     0.199 C 
BRANCH  16  17
HETATM   17  O3  UNK   900      32.185 -52.012 -59.000  1.00  0.00    -0.397 OA
HETATM   18  H25 UNK   900      32.194 -52.276 -58.064  1.00  0.00     0.209 HD
ENDBRANCH  16  17
ENDBRANCH   8  16
BRANCH   9  19
HETATM   19  C15 UNK   900      32.562 -48.088 -58.735  1.00  0.00     0.175 C 
BRANCH  19  20
HETATM   20  O4  UNK   900      31.812 -47.998 -57.540  1.00  0.00    -0.400 OA
HETATM   21  H26 UNK   900      32.399 -47.628 -56.859  1.00  0.00     0.209 HD
ENDBRANCH  19  20
ENDBRANCH   9  19
BRANCH  10  22
HETATM   22  O1  UNK   900      29.834 -48.389 -59.851  1.00  0.00    -0.395 OA
HETATM   23  H23 UNK   900      29.253 -47.946 -60.493  1.00  0.00     0.210 HD
ENDBRANCH  10  22
TORSDOF 7
ENDMDL
MODEL 9
REMARK VINA RESULT:      -5.3     20.598     22.815
REMARK  7 active torsions:
REMARK  status: ('A' for Active; 'I' for Inactive)
REMARK    1  A    between atoms: O1_1  and  C10_14 
REMARK    2  A    between atoms: O2_2  and  C11_15 
REMARK    3  A    between atoms: O3_3  and  C14_18 
REMARK    4  A    between atoms: O4_4  and  C15_19 
REMARK    5  A    between atoms: C2_6  and  C11_15 
REMARK    6  A    between atoms: C8_12  and  C14_18 
REMARK    7  A    between atoms: C9_13  and  C15_19 
ROOT
HETATM    1  C1  UNK   900      36.051 -41.214 -39.239  1.00  0.00     0.019 C 
HETATM    2  C2  UNK   900      37.284 -43.249 -38.685  1.00  0.00    -0.018 C 
HETATM    3  C3  UNK   900      37.411 -41.722 -38.718  1.00  0.00     0.021 C 
HETATM    4  C4  UNK   900      35.527 -42.369 -40.076  1.00  0.00    -0.070 C 
HETATM    5  C5  UNK   900      36.161 -39.844 -39.938  1.00  0.00    -0.008 C 
HETATM    6  C6  UNK   900      36.495 -43.529 -39.973  1.00  0.00     0.046 C 
HETATM    7  C7  UNK   900      34.784 -39.194 -40.153  1.00  0.00     0.037 C 
HETATM    8  C8  UNK   900      34.347 -42.406 -40.733  1.00  0.00    -0.045 C 
HETATM    9  C9  UNK   900      33.318 -41.283 -40.718  1.00  0.00     0.069 C 
HETATM   10  C10 UNK   900      33.851 -39.899 -41.140  1.00  0.00     0.128 C 
HETATM   11  C12 UNK   900      36.517 -43.724 -37.437  1.00  0.00     0.018 C 
HETATM   12  C13 UNK   900      36.969 -39.861 -41.244  1.00  0.00     0.011 C 
ENDROOT
BRANCH   2  13
HETATM   13  C11 UNK   900      38.657 -43.927 -38.712  1.00  0.00     0.173 C 
BRANCH  13  14
HETATM   14  O2  UNK   900      38.895 -44.396 -40.026  1.00  0.00    -0.400 OA
HETATM   15  H24 UNK   900      39.595 -45.069 -39.968  1.00  0.00     0.209 HD
ENDBRANCH  13  14
ENDBRANCH   2  13
BRANCH   8  16
HETATM   16  C14 UNK   900      33.911 -43.605 -41.544  1.00  0.00     0.199 C 
BRANCH  16  17
HETATM   17  O3  UNK   900      32.792 -43.255 -42.328  1.00  0.00    -0.397 OA
HETATM   18  H25 UNK   900      32.901 -42.325 -42.591  1.00  0.00     0.209 HD
ENDBRANCH  16  17
ENDBRANCH   8  16
BRANCH   9  19
HETATM   19  C15 UNK   900      32.529 -41.269 -39.400  1.00  0.00     0.175 C 
BRANCH  19  20
HETATM   20  O4  UNK   900      31.151 -41.291 -39.711  1.00  0.00    -0.400 OA
HETATM   21  H26 UNK   900      30.667 -41.379 -38.873  1.00  0.00     0.209 HD
ENDBRANCH  19  20
ENDBRANCH   9  19
BRANCH  10  22
HETATM   22  O1  UNK   900      32.716 -39.047 -41.350  1.00  0.00    -0.395 OA
HETATM   23  H23 UNK   900      32.283 -39.331 -42.173  1.00  0.00     0.210 HD
ENDBRANCH  10  22
TORSDOF 7
ENDMDL
