MODEL 1
REMARK VINA RESULT:      -7.5      0.000      0.000
REMARK  9 active torsions:
REMARK  status: ('A' for Active; 'I' for Inactive)
REMARK    1  A    between atoms: O2_2  and  C2_10 
REMARK    2  A    between atoms: O3_3  and  C8_16 
REMARK    3  A    between atoms: O3_3  and  C14_22 
REMARK    4  A    between atoms: O4_4  and  C13_21 
REMARK    5  A    between atoms: O7_7  and  C17_25 
REMARK    6  A    between atoms: O8_8  and  C21_29 
REMARK    7  A    between atoms: C1_9  and  C2_10 
REMARK    8  A    between atoms: C9_17  and  C13_21 
REMARK    9  A    between atoms: C14_22  and  C15_23 
ROOT
HETATM    1  O1  UNK   900      32.039 -50.765 -59.460  1.00  0.00    -0.341 OA
HETATM    2  C1  UNK   900      31.900 -49.526 -60.205  1.00  0.00     0.167 C 
HETATM    3  C3  UNK   900      33.301 -48.999 -60.555  1.00  0.00     0.080 C 
HETATM    4  C4  UNK   900      34.063 -50.263 -60.444  1.00  0.00     0.013 A 
HETATM    5  C5  UNK   900      33.292 -51.213 -59.791  1.00  0.00     0.096 A 
HETATM    6  C8  UNK   900      35.360 -50.546 -60.832  1.00  0.00     0.089 A 
HETATM    7  C9  UNK   900      33.778 -52.472 -59.496  1.00  0.00     0.077 A 
HETATM    8  C10 UNK   900      35.082 -52.774 -59.890  1.00  0.00    -0.040 A 
HETATM    9  C11 UNK   900      35.868 -51.818 -60.556  1.00  0.00     0.045 A 
HETATM   10  C12 UNK   900      35.675 -54.118 -59.612  1.00  0.00     0.049 C 
ENDROOT
BRANCH   6  11
HETATM   11  O3  UNK   900      36.127 -49.618 -61.458  1.00  0.00    -0.274 OA
BRANCH  11  12
HETATM   12  C14 UNK   900      36.067 -49.664 -62.855  1.00  0.00     0.301 C 
HETATM   13  O6  UNK   900      36.396 -50.615 -63.547  1.00  0.00    -0.259 OA
BRANCH  12  14
HETATM   14  C15 UNK   900      35.555 -48.388 -63.417  1.00  0.00     0.079 A 
HETATM   15  C16 UNK   900      36.340 -47.236 -63.373  1.00  0.00    -0.040 A 
HETATM   16  C18 UNK   900      35.853 -46.040 -63.899  1.00  0.00     0.044 A 
HETATM   17  C20 UNK   900      37.705 -47.253 -62.767  1.00  0.00     0.049 C 
HETATM   18  C21 UNK   900      34.580 -45.996 -64.469  1.00  0.00     0.068 A 
HETATM   19  C19 UNK   900      33.796 -47.148 -64.513  1.00  0.00     0.074 A 
HETATM   20  C17 UNK   900      34.282 -48.345 -63.986  1.00  0.00     0.085 A 
BRANCH  18  21
HETATM   21  O8  UNK   900      34.104 -44.829 -64.984  1.00  0.00    -0.361 OA
HETATM   22  H22 UNK   900      33.263 -45.007 -65.442  1.00  0.00     0.217 HD
ENDBRANCH  18  21
BRANCH  20  23
HETATM   23  O7  UNK   900      33.498 -49.458 -64.038  1.00  0.00    -0.360 OA
HETATM   24  H21 UNK   900      33.686 -50.043 -63.287  1.00  0.00     0.217 HD
ENDBRANCH  20  23
ENDBRANCH  12  14
ENDBRANCH  11  12
ENDBRANCH   6  11
BRANCH   2  25
HETATM   25  C2  UNK   900      31.097 -48.540 -59.374  1.00  0.00     0.077 C 
HETATM   26  C6  UNK   900      32.013 -47.677 -58.502  1.00  0.00     0.048 C 
HETATM   27  C7  UNK   900      30.227 -47.653 -60.269  1.00  0.00     0.048 C 
BRANCH  25  28
HETATM   28  O2  UNK   900      30.216 -49.268 -58.514  1.00  0.00    -0.388 OA
HETATM   29  H11 UNK   900      29.569 -48.643 -58.145  1.00  0.00     0.210 HD
ENDBRANCH  25  28
ENDBRANCH   2  25
BRANCH   7  30
HETATM   30  C13 UNK   900      32.944 -53.443 -58.802  1.00  0.00     0.179 C 
HETATM   31  O5  UNK   900      32.124 -54.193 -59.339  1.00  0.00    -0.646 OA
BRANCH  30  32
HETATM   32  O4  UNK   900      33.162 -53.450 -57.459  1.00  0.00    -0.773 OA
HETATM   33  H15 UNK   900      32.620 -54.129 -57.004  1.00  0.00     0.167 HD
ENDBRANCH  30  32
ENDBRANCH   7  30
TORSDOF 9
ENDMDL
MODEL 2
REMARK VINA RESULT:      -7.4     11.041     15.067
REMARK  9 active torsions:
REMARK  status: ('A' for Active; 'I' for Inactive)
REMARK    1  A    between atoms: O2_2  and  C2_10 
REMARK    2  A    between atoms: O3_3  and  C8_16 
REMARK    3  A    between atoms: O3_3  and  C14_22 
REMARK    4  A    between atoms: O4_4  and  C13_21 
REMARK    5  A    between atoms: O7_7  and  C17_25 
REMARK    6  A    between atoms: O8_8  and  C21_29 
REMARK    7  A    between atoms: C1_9  and  C2_10 
REMARK    8  A    between atoms: C9_17  and  C13_21 
REMARK    9  A    between atoms: C14_22  and  C15_23 
ROOT
HETATM    1  O1  UNK   900      37.545 -35.978 -60.280  1.00  0.00    -0.341 OA
HETATM    2  C1  UNK   900      37.485 -37.427 -60.200  1.00  0.00     0.167 C 
HETATM    3  C3  UNK   900      36.748 -37.821 -58.909  1.00  0.00     0.080 C 
HETATM    4  C4  UNK   900      36.000 -36.565 -58.672  1.00  0.00     0.013 A 
HETATM    5  C5  UNK   900      36.524 -35.557 -59.467  1.00  0.00     0.096 A 
HETATM    6  C8  UNK   900      34.975 -36.306 -57.781  1.00  0.00     0.089 A 
HETATM    7  C9  UNK   900      36.055 -34.259 -59.406  1.00  0.00     0.077 A 
HETATM    8  C10 UNK   900      35.014 -33.986 -58.519  1.00  0.00    -0.040 A 
HETATM    9  C11 UNK   900      34.476 -35.003 -57.712  1.00  0.00     0.045 A 
HETATM   10  C12 UNK   900      34.449 -32.606 -58.401  1.00  0.00     0.049 C 
ENDROOT
BRANCH   6  11
HETATM   11  O3  UNK   900      34.467 -37.282 -56.988  1.00  0.00    -0.274 OA
BRANCH  11  12
HETATM   12  C14 UNK   900      35.120 -37.429 -55.759  1.00  0.00     0.301 C 
HETATM   13  O6  UNK   900      35.256 -36.552 -54.921  1.00  0.00    -0.259 OA
BRANCH  12  14
HETATM   14  C15 UNK   900      35.653 -38.805 -55.591  1.00  0.00     0.079 A 
HETATM   15  C16 UNK   900      37.025 -39.016 -55.461  1.00  0.00    -0.040 A 
HETATM   16  C18 UNK   900      37.521 -40.311 -55.306  1.00  0.00     0.044 A 
HETATM   17  C20 UNK   900      37.989 -37.874 -55.483  1.00  0.00     0.049 C 
HETATM   18  C21 UNK   900      36.643 -41.395 -55.282  1.00  0.00     0.068 A 
HETATM   19  C19 UNK   900      35.271 -41.184 -55.413  1.00  0.00     0.074 A 
HETATM   20  C17 UNK   900      34.775 -39.889 -55.569  1.00  0.00     0.085 A 
BRANCH  18  21
HETATM   21  O8  UNK   900      37.125 -42.659 -55.130  1.00  0.00    -0.361 OA
HETATM   22  H22 UNK   900      37.872 -42.639 -54.507  1.00  0.00     0.217 HD
ENDBRANCH  18  21
BRANCH  20  23
HETATM   23  O7  UNK   900      33.431 -39.706 -55.696  1.00  0.00    -0.360 OA
HETATM   24  H21 UNK   900      33.215 -38.760 -55.718  1.00  0.00     0.217 HD
ENDBRANCH  20  23
ENDBRANCH  12  14
ENDBRANCH  11  12
ENDBRANCH   6  11
BRANCH   2  25
HETATM   25  C2  UNK   900      38.898 -37.982 -60.256  1.00  0.00     0.077 C 
HETATM   26  C6  UNK   900      39.113 -39.054 -59.185  1.00  0.00     0.048 C 
HETATM   27  C7  UNK   900      39.206 -38.549 -61.644  1.00  0.00     0.048 C 
BRANCH  25  28
HETATM   28  O2  UNK   900      39.824 -36.918 -60.018  1.00  0.00    -0.388 OA
HETATM   29  H11 UNK   900      40.035 -36.505 -60.873  1.00  0.00     0.210 HD
ENDBRANCH  25  28
ENDBRANCH   2  25
BRANCH   7  30
HETATM   30  C13 UNK   900      36.632 -33.223 -60.250  1.00  0.00     0.179 C 
HETATM   31  O5  UNK   900      37.318 -32.277 -59.852  1.00  0.00    -0.646 OA
BRANCH  30  32
HETATM   32  O4  UNK   900      36.337 -33.401 -61.567  1.00  0.00    -0.773 OA
HETATM   33  H15 UNK   900      36.422 -34.340 -61.836  1.00  0.00     0.167 HD
ENDBRANCH  30  32
ENDBRANCH   7  30
TORSDOF 9
ENDMDL
MODEL 3
REMARK VINA RESULT:      -7.3      1.547      2.358
REMARK  9 active torsions:
REMARK  status: ('A' for Active; 'I' for Inactive)
REMARK    1  A    between atoms: O2_2  and  C2_10 
REMARK    2  A    between atoms: O3_3  and  C8_16 
REMARK    3  A    between atoms: O3_3  and  C14_22 
REMARK    4  A    between atoms: O4_4  and  C13_21 
REMARK    5  A    between atoms: O7_7  and  C17_25 
REMARK    6  A    between atoms: O8_8  and  C21_29 
REMARK    7  A    between atoms: C1_9  and  C2_10 
REMARK    8  A    between atoms: C9_17  and  C13_21 
REMARK    9  A    between atoms: C14_22  and  C15_23 
ROOT
HETATM    1  O1  UNK   900      32.616 -50.706 -59.358  1.00  0.00    -0.341 OA
HETATM    2  C1  UNK   900      32.860 -49.441 -60.030  1.00  0.00     0.167 C 
HETATM    3  C3  UNK   900      34.374 -49.273 -60.234  1.00  0.00     0.080 C 
HETATM    4  C4  UNK   900      34.783 -50.692 -60.146  1.00  0.00     0.013 A 
HETATM    5  C5  UNK   900      33.744 -51.443 -59.618  1.00  0.00     0.096 A 
HETATM    6  C8  UNK   900      35.998 -51.279 -60.449  1.00  0.00     0.089 A 
HETATM    7  C9  UNK   900      33.871 -52.795 -59.368  1.00  0.00     0.077 A 
HETATM    8  C10 UNK   900      35.088 -53.401 -59.678  1.00  0.00    -0.040 A 
HETATM    9  C11 UNK   900      36.146 -52.649 -60.217  1.00  0.00     0.045 A 
HETATM   10  C12 UNK   900      35.300 -54.863 -59.442  1.00  0.00     0.049 C 
ENDROOT
BRANCH   6  11
HETATM   11  O3  UNK   900      37.027 -50.550 -60.951  1.00  0.00    -0.274 OA
BRANCH  11  12
HETATM   12  C14 UNK   900      37.014 -50.414 -62.344  1.00  0.00     0.301 C 
HETATM   13  O6  UNK   900      36.822 -51.318 -63.142  1.00  0.00    -0.259 OA
BRANCH  12  14
HETATM   14  C15 UNK   900      37.278 -49.011 -62.752  1.00  0.00     0.079 A 
HETATM   15  C16 UNK   900      36.300 -48.278 -63.424  1.00  0.00    -0.040 A 
HETATM   16  C18 UNK   900      36.554 -46.962 -63.808  1.00  0.00     0.044 A 
HETATM   17  C20 UNK   900      34.970 -48.878 -63.746  1.00  0.00     0.049 C 
HETATM   18  C21 UNK   900      37.787 -46.377 -63.520  1.00  0.00     0.068 A 
HETATM   19  C19 UNK   900      38.766 -47.110 -62.849  1.00  0.00     0.074 A 
HETATM   20  C17 UNK   900      38.513 -48.427 -62.465  1.00  0.00     0.085 A 
BRANCH  18  21
HETATM   21  O8  UNK   900      38.037 -45.093 -63.894  1.00  0.00    -0.361 OA
HETATM   22  H22 UNK   900      38.362 -45.088 -64.811  1.00  0.00     0.217 HD
ENDBRANCH  18  21
BRANCH  20  23
HETATM   23  O7  UNK   900      39.483 -49.125 -61.811  1.00  0.00    -0.360 OA
HETATM   24  H21 UNK   900      39.430 -48.971 -60.855  1.00  0.00     0.217 HD
ENDBRANCH  20  23
ENDBRANCH  12  14
ENDBRANCH  11  12
ENDBRANCH   6  11
BRANCH   2  25
HETATM   25  C2  UNK   900      32.255 -48.320 -59.203  1.00  0.00     0.077 C 
HETATM   26  C6  UNK   900      32.452 -46.963 -59.883  1.00  0.00     0.048 C 
HETATM   27  C7  UNK   900      30.768 -48.572 -58.945  1.00  0.00     0.048 C 
BRANCH  25  28
HETATM   28  O2  UNK   900      32.905 -48.281 -57.929  1.00  0.00    -0.388 OA
HETATM   29  H11 UNK   900      32.383 -48.816 -57.307  1.00  0.00     0.210 HD
ENDBRANCH  25  28
ENDBRANCH   2  25
BRANCH   7  30
HETATM   30  C13 UNK   900      32.761 -53.552 -58.806  1.00  0.00     0.179 C 
HETATM   31  O5  UNK   900      31.858 -54.085 -59.457  1.00  0.00    -0.646 OA
BRANCH  30  32
HETATM   32  O4  UNK   900      32.814 -53.620 -57.448  1.00  0.00    -0.773 OA
HETATM   33  H15 UNK   900      33.050 -52.757 -57.048  1.00  0.00     0.167 HD
ENDBRANCH  30  32
ENDBRANCH   7  30
TORSDOF 9
ENDMDL
MODEL 4
REMARK VINA RESULT:      -7.0      9.358     11.886
REMARK  9 active torsions:
REMARK  status: ('A' for Active; 'I' for Inactive)
REMARK    1  A    between atoms: O2_2  and  C2_10 
REMARK    2  A    between atoms: O3_3  and  C8_16 
REMARK    3  A    between atoms: O3_3  and  C14_22 
REMARK    4  A    between atoms: O4_4  and  C13_21 
REMARK    5  A    between atoms: O7_7  and  C17_25 
REMARK    6  A    between atoms: O8_8  and  C21_29 
REMARK    7  A    between atoms: C1_9  and  C2_10 
REMARK    8  A    between atoms: C9_17  and  C13_21 
REMARK    9  A    between atoms: C14_22  and  C15_23 
ROOT
HETATM    1  O1  UNK   900      39.375 -42.338 -58.195  1.00  0.00    -0.341 OA
HETATM    2  C1  UNK   900      38.511 -41.515 -59.024  1.00  0.00     0.167 C 
HETATM    3  C3  UNK   900      37.237 -41.182 -58.232  1.00  0.00     0.080 C 
HETATM    4  C4  UNK   900      37.748 -41.395 -56.860  1.00  0.00     0.013 A 
HETATM    5  C5  UNK   900      38.954 -42.079 -56.916  1.00  0.00     0.096 A 
HETATM    6  C8  UNK   900      37.174 -41.070 -55.645  1.00  0.00     0.089 A 
HETATM    7  C9  UNK   900      39.629 -42.466 -55.775  1.00  0.00     0.077 A 
HETATM    8  C10 UNK   900      39.065 -42.135 -54.543  1.00  0.00    -0.040 A 
HETATM    9  C11 UNK   900      37.846 -41.440 -54.477  1.00  0.00     0.045 A 
HETATM   10  C12 UNK   900      39.741 -42.515 -53.263  1.00  0.00     0.049 C 
ENDROOT
BRANCH   6  11
HETATM   11  O3  UNK   900      35.987 -40.415 -55.579  1.00  0.00    -0.274 OA
BRANCH  11  12
HETATM   12  C14 UNK   900      36.097 -39.021 -55.529  1.00  0.00     0.301 C 
HETATM   13  O6  UNK   900      37.069 -38.401 -55.126  1.00  0.00    -0.259 OA
BRANCH  12  14
HETATM   14  C15 UNK   900      34.861 -38.363 -56.025  1.00  0.00     0.079 A 
HETATM   15  C16 UNK   900      34.922 -37.463 -57.089  1.00  0.00    -0.040 A 
HETATM   16  C18 UNK   900      33.759 -36.846 -57.548  1.00  0.00     0.044 A 
HETATM   17  C20 UNK   900      36.219 -37.141 -57.756  1.00  0.00     0.049 C 
HETATM   18  C21 UNK   900      32.534 -37.129 -56.943  1.00  0.00     0.068 A 
HETATM   19  C19 UNK   900      32.473 -38.028 -55.879  1.00  0.00     0.074 A 
HETATM   20  C17 UNK   900      33.636 -38.645 -55.419  1.00  0.00     0.085 A 
BRANCH  18  21
HETATM   21  O8  UNK   900      31.397 -36.528 -57.391  1.00  0.00    -0.361 OA
HETATM   22  H22 UNK   900      30.901 -37.161 -57.939  1.00  0.00     0.217 HD
ENDBRANCH  18  21
BRANCH  20  23
HETATM   23  O7  UNK   900      33.554 -39.520 -54.377  1.00  0.00    -0.360 OA
HETATM   24  H21 UNK   900      34.385 -39.532 -53.874  1.00  0.00     0.217 HD
ENDBRANCH  20  23
ENDBRANCH  12  14
ENDBRANCH  11  12
ENDBRANCH   6  11
BRANCH   2  25
HETATM   25  C2  UNK   900      38.217 -42.256 -60.317  1.00  0.00     0.077 C 
HETATM   26  C6  UNK   900      37.654 -41.310 -61.380  1.00  0.00     0.048 C 
HETATM   27  C7  UNK   900      39.472 -42.958 -60.842  1.00  0.00     0.048 C 
BRANCH  25  28
HETATM   28  O2  UNK   900      37.242 -43.270 -60.058  1.00  0.00    -0.388 OA
HETATM   29  H11 UNK   900      36.520 -43.166 -60.701  1.00  0.00     0.210 HD
ENDBRANCH  25  28
ENDBRANCH   2  25
BRANCH   7  30
HETATM   30  C13 UNK   900      40.889 -43.189 -55.870  1.00  0.00     0.179 C 
HETATM   31  O5  UNK   900      41.043 -44.392 -55.636  1.00  0.00    -0.646 OA
BRANCH  30  32
HETATM   32  O4  UNK   900      41.920 -42.388 -56.256  1.00  0.00    -0.773 OA
HETATM   33  H15 UNK   900      42.707 -42.909 -56.520  1.00  0.00     0.167 HD
ENDBRANCH  30  32
ENDBRANCH   7  30
TORSDOF 9
ENDMDL
MODEL 5
REMARK VINA RESULT:      -6.9     11.828     15.135
REMARK  9 active torsions:
REMARK  status: ('A' for Active; 'I' for Inactive)
REMARK    1  A    between atoms: O2_2  and  C2_10 
REMARK    2  A    between atoms: O3_3  and  C8_16 
REMARK    3  A    between atoms: O3_3  and  C14_22 
REMARK    4  A    between atoms: O4_4  and  C13_21 
REMARK    5  A    between atoms: O7_7  and  C17_25 
REMARK    6  A    between atoms: O8_8  and  C21_29 
REMARK    7  A    between atoms: C1_9  and  C2_10 
REMARK    8  A    between atoms: C9_17  and  C13_21 
REMARK    9  A    between atoms: C14_22  and  C15_23 
ROOT
HETATM    1  O1  UNK   900      34.439 -34.796 -58.496  1.00  0.00    -0.341 OA
HETATM    2  C1  UNK   900      33.936 -35.539 -57.354  1.00  0.00     0.167 C 
HETATM    3  C3  UNK   900      35.118 -36.223 -56.648  1.00  0.00     0.080 C 
HETATM    4  C4  UNK   900      36.217 -35.362 -57.141  1.00  0.00     0.013 A 
HETATM    5  C5  UNK   900      35.764 -34.597 -58.206  1.00  0.00     0.096 A 
HETATM    6  C8  UNK   900      37.535 -35.294 -56.728  1.00  0.00     0.089 A 
HETATM    7  C9  UNK   900      36.599 -33.743 -58.900  1.00  0.00     0.077 A 
HETATM    8  C10 UNK   900      37.929 -33.658 -58.488  1.00  0.00    -0.040 A 
HETATM    9  C11 UNK   900      38.394 -34.427 -57.408  1.00  0.00     0.045 A 
HETATM   10  C12 UNK   900      38.892 -32.751 -59.186  1.00  0.00     0.049 C 
ENDROOT
BRANCH   6  11
HETATM   11  O3  UNK   900      37.991 -36.049 -55.697  1.00  0.00    -0.274 OA
BRANCH  11  12
HETATM   12  C14 UNK   900      38.799 -37.124 -56.081  1.00  0.00     0.301 C 
HETATM   13  O6  UNK   900      40.018 -37.157 -56.004  1.00  0.00    -0.259 OA
BRANCH  12  14
HETATM   14  C15 UNK   900      37.988 -38.247 -56.617  1.00  0.00     0.079 A 
HETATM   15  C16 UNK   900      38.025 -38.553 -57.977  1.00  0.00    -0.040 A 
HETATM   16  C18 UNK   900      37.258 -39.606 -58.477  1.00  0.00     0.044 A 
HETATM   17  C20 UNK   900      38.875 -37.770 -58.924  1.00  0.00     0.049 C 
HETATM   18  C21 UNK   900      36.455 -40.354 -57.615  1.00  0.00     0.068 A 
HETATM   19  C19 UNK   900      36.418 -40.047 -56.255  1.00  0.00     0.074 A 
HETATM   20  C17 UNK   900      37.184 -38.993 -55.755  1.00  0.00     0.085 A 
BRANCH  18  21
HETATM   21  O8  UNK   900      35.708 -41.382 -58.100  1.00  0.00    -0.361 OA
HETATM   22  H22 UNK   900      36.303 -42.097 -58.387  1.00  0.00     0.217 HD
ENDBRANCH  18  21
BRANCH  20  23
HETATM   23  O7  UNK   900      37.132 -38.710 -54.423  1.00  0.00    -0.360 OA
HETATM   24  H21 UNK   900      36.893 -39.501 -53.915  1.00  0.00     0.217 HD
ENDBRANCH  20  23
ENDBRANCH  12  14
ENDBRANCH  11  12
ENDBRANCH   6  11
BRANCH   2  25
HETATM   25  C2  UNK   900      32.891 -36.532 -57.834  1.00  0.00     0.077 C 
HETATM   26  C6  UNK   900      32.515 -37.518 -56.725  1.00  0.00     0.048 C 
HETATM   27  C7  UNK   900      31.643 -35.807 -58.344  1.00  0.00     0.048 C 
BRANCH  25  28
HETATM   28  O2  UNK   900      33.427 -37.275 -58.932  1.00  0.00    -0.388 OA
HETATM   29  H11 UNK   900      34.347 -36.992 -59.068  1.00  0.00     0.210 HD
ENDBRANCH  25  28
ENDBRANCH   2  25
BRANCH   7  30
HETATM   30  C13 UNK   900      36.093 -32.960 -60.018  1.00  0.00     0.179 C 
HETATM   31  O5  UNK   900      35.743 -31.778 -59.962  1.00  0.00    -0.646 OA
BRANCH  30  32
HETATM   32  O4  UNK   900      36.042 -33.677 -61.174  1.00  0.00    -0.773 OA
HETATM   33  H15 UNK   900      35.273 -34.285 -61.192  1.00  0.00     0.167 HD
ENDBRANCH  30  32
ENDBRANCH   7  30
TORSDOF 9
ENDMDL
MODEL 6
REMARK VINA RESULT:      -6.7     10.596     13.723
REMARK  9 active torsions:
REMARK  status: ('A' for Active; 'I' for Inactive)
REMARK    1  A    between atoms: O2_2  and  C2_10 
REMARK    2  A    between atoms: O3_3  and  C8_16 
REMARK    3  A    between atoms: O3_3  and  C14_22 
REMARK    4  A    between atoms: O4_4  and  C13_21 
REMARK    5  A    between atoms: O7_7  and  C17_25 
REMARK    6  A    between atoms: O8_8  and  C21_29 
REMARK    7  A    between atoms: C1_9  and  C2_10 
REMARK    8  A    between atoms: C9_17  and  C13_21 
REMARK    9  A    between atoms: C14_22  and  C15_23 
ROOT
HETATM    1  O1  UNK   900      35.308 -35.903 -59.193  1.00  0.00    -0.341 OA
HETATM    2  C1  UNK   900      36.564 -36.431 -59.697  1.00  0.00     0.167 C 
HETATM    3  C3  UNK   900      37.235 -37.256 -58.588  1.00  0.00     0.080 C 
HETATM    4  C4  UNK   900      36.044 -37.556 -57.763  1.00  0.00     0.013 A 
HETATM    5  C5  UNK   900      34.995 -36.733 -58.147  1.00  0.00     0.096 A 
HETATM    6  C8  UNK   900      35.901 -38.442 -56.711  1.00  0.00     0.089 A 
HETATM    7  C9  UNK   900      33.774 -36.755 -57.502  1.00  0.00     0.077 A 
HETATM    8  C10 UNK   900      33.614 -37.651 -56.445  1.00  0.00    -0.040 A 
HETATM    9  C11 UNK   900      34.670 -38.491 -56.052  1.00  0.00     0.045 A 
HETATM   10  C12 UNK   900      32.318 -37.737 -55.702  1.00  0.00     0.049 C 
ENDROOT
BRANCH   6  11
HETATM   11  O3  UNK   900      36.926 -39.240 -56.318  1.00  0.00    -0.274 OA
BRANCH  11  12
HETATM   12  C14 UNK   900      36.836 -40.561 -56.769  1.00  0.00     0.301 C 
HETATM   13  O6  UNK   900      35.887 -41.042 -57.368  1.00  0.00    -0.259 OA
BRANCH  12  14
HETATM   14  C15 UNK   900      38.054 -41.336 -56.419  1.00  0.00     0.079 A 
HETATM   15  C16 UNK   900      38.034 -42.230 -55.349  1.00  0.00    -0.040 A 
HETATM   16  C18 UNK   900      39.181 -42.953 -55.022  1.00  0.00     0.044 A 
HETATM   17  C20 UNK   900      36.799 -42.433 -54.533  1.00  0.00     0.049 C 
HETATM   18  C21 UNK   900      40.349 -42.782 -55.767  1.00  0.00     0.068 A 
HETATM   19  C19 UNK   900      40.368 -41.888 -56.837  1.00  0.00     0.074 A 
HETATM   20  C17 UNK   900      39.221 -41.164 -57.163  1.00  0.00     0.085 A 
BRANCH  18  21
HETATM   21  O8  UNK   900      41.469 -43.487 -55.450  1.00  0.00    -0.361 OA
HETATM   22  H22 UNK   900      42.167 -43.276 -56.094  1.00  0.00     0.217 HD
ENDBRANCH  18  21
BRANCH  20  23
HETATM   23  O7  UNK   900      39.263 -40.295 -58.212  1.00  0.00    -0.360 OA
HETATM   24  H21 UNK   900      40.142 -40.297 -58.623  1.00  0.00     0.217 HD
ENDBRANCH  20  23
ENDBRANCH  12  14
ENDBRANCH  11  12
ENDBRANCH   6  11
BRANCH   2  25
HETATM   25  C2  UNK   900      37.430 -35.275 -60.169  1.00  0.00     0.077 C 
HETATM   26  C6  UNK   900      38.181 -34.635 -58.999  1.00  0.00     0.048 C 
HETATM   27  C7  UNK   900      38.416 -35.734 -61.245  1.00  0.00     0.048 C 
BRANCH  25  28
HETATM   28  O2  UNK   900      36.591 -34.279 -60.761  1.00  0.00    -0.388 OA
HETATM   29  H11 UNK   900      36.816 -34.216 -61.704  1.00  0.00     0.210 HD
ENDBRANCH  25  28
ENDBRANCH   2  25
BRANCH   7  30
HETATM   30  C13 UNK   900      32.697 -35.872 -57.926  1.00  0.00     0.179 C 
HETATM   31  O5  UNK   900      31.616 -36.238 -58.398  1.00  0.00    -0.646 OA
BRANCH  30  32
HETATM   32  O4  UNK   900      33.001 -34.558 -57.746  1.00  0.00    -0.773 OA
HETATM   33  H15 UNK   900      32.803 -34.259 -56.834  1.00  0.00     0.167 HD
ENDBRANCH  30  32
ENDBRANCH   7  30
TORSDOF 9
ENDMDL
MODEL 7
REMARK VINA RESULT:      -6.7     13.251     16.344
REMARK  9 active torsions:
REMARK  status: ('A' for Active; 'I' for Inactive)
REMARK    1  A    between atoms: O2_2  and  C2_10 
REMARK    2  A    between atoms: O3_3  and  C8_16 
REMARK    3  A    between atoms: O3_3  and  C14_22 
REMARK    4  A    between atoms: O4_4  and  C13_21 
REMARK    5  A    between atoms: O7_7  and  C17_25 
REMARK    6  A    between atoms: O8_8  and  C21_29 
REMARK    7  A    between atoms: C1_9  and  C2_10 
REMARK    8  A    between atoms: C9_17  and  C13_21 
REMARK    9  A    between atoms: C14_22  and  C15_23 
ROOT
HETATM    1  O1  UNK   900      35.616 -36.450 -58.858  1.00  0.00    -0.341 OA
HETATM    2  C1  UNK   900      34.623 -35.485 -59.297  1.00  0.00     0.167 C 
HETATM    3  C3  UNK   900      35.344 -34.287 -59.934  1.00  0.00     0.080 C 
HETATM    4  C4  UNK   900      36.628 -34.939 -60.276  1.00  0.00     0.013 A 
HETATM    5  C5  UNK   900      36.723 -36.152 -59.610  1.00  0.00     0.096 A 
HETATM    6  C8  UNK   900      37.666 -34.480 -61.065  1.00  0.00     0.089 A 
HETATM    7  C9  UNK   900      37.849 -36.948 -59.698  1.00  0.00     0.077 A 
HETATM    8  C10 UNK   900      38.900 -36.501 -60.499  1.00  0.00    -0.040 A 
HETATM    9  C11 UNK   900      38.809 -35.275 -61.180  1.00  0.00     0.045 A 
HETATM   10  C12 UNK   900      40.148 -37.312 -60.648  1.00  0.00     0.049 C 
ENDROOT
BRANCH   6  11
HETATM   11  O3  UNK   900      37.589 -33.288 -61.709  1.00  0.00    -0.274 OA
BRANCH  11  12
HETATM   12  C14 UNK   900      38.281 -32.245 -61.082  1.00  0.00     0.301 C 
HETATM   13  O6  UNK   900      39.493 -32.178 -60.951  1.00  0.00    -0.259 OA
BRANCH  12  14
HETATM   14  C15 UNK   900      37.348 -31.209 -60.570  1.00  0.00     0.079 A 
HETATM   15  C16 UNK   900      37.072 -31.123 -59.206  1.00  0.00    -0.040 A 
HETATM   16  C18 UNK   900      36.194 -30.150 -58.731  1.00  0.00     0.044 A 
HETATM   17  C20 UNK   900      37.703 -32.062 -58.229  1.00  0.00     0.049 C 
HETATM   18  C21 UNK   900      35.590 -29.261 -59.621  1.00  0.00     0.068 A 
HETATM   19  C19 UNK   900      35.866 -29.347 -60.986  1.00  0.00     0.074 A 
HETATM   20  C17 UNK   900      36.744 -30.321 -61.461  1.00  0.00     0.085 A 
BRANCH  18  21
HETATM   21  O8  UNK   900      34.734 -28.310 -59.159  1.00  0.00    -0.361 OA
HETATM   22  H22 UNK   900      34.728 -28.336 -58.186  1.00  0.00     0.217 HD
ENDBRANCH  18  21
BRANCH  20  23
HETATM   23  O7  UNK   900      36.998 -30.388 -62.798  1.00  0.00    -0.360 OA
HETATM   24  H21 UNK   900      37.015 -29.499 -63.188  1.00  0.00     0.217 HD
ENDBRANCH  20  23
ENDBRANCH  12  14
ENDBRANCH  11  12
ENDBRANCH   6  11
BRANCH   2  25
HETATM   25  C2  UNK   900      33.767 -35.084 -58.107  1.00  0.00     0.077 C 
HETATM   26  C6  UNK   900      34.182 -35.846 -56.846  1.00  0.00     0.048 C 
HETATM   27  C7  UNK   900      33.842 -33.575 -57.864  1.00  0.00     0.048 C 
BRANCH  25  28
HETATM   28  O2  UNK   900      32.401 -35.400 -58.391  1.00  0.00    -0.388 OA
HETATM   29  H11 UNK   900      31.838 -34.800 -57.872  1.00  0.00     0.210 HD
ENDBRANCH  25  28
ENDBRANCH   2  25
BRANCH   7  30
HETATM   30  C13 UNK   900      37.918 -38.212 -58.979  1.00  0.00     0.179 C 
HETATM   31  O5  UNK   900      37.775 -39.330 -59.484  1.00  0.00    -0.646 OA
BRANCH  30  32
HETATM   32  O4  UNK   900      38.168 -38.043 -57.652  1.00  0.00    -0.773 OA
HETATM   33  H15 UNK   900      38.461 -38.876 -57.226  1.00  0.00     0.167 HD
ENDBRANCH  30  32
ENDBRANCH   7  30
TORSDOF 9
ENDMDL
MODEL 8
REMARK VINA RESULT:      -6.5     30.960     32.879
REMARK  9 active torsions:
REMARK  status: ('A' for Active; 'I' for Inactive)
REMARK    1  A    between atoms: O2_2  and  C2_10 
REMARK    2  A    between atoms: O3_3  and  C8_16 
REMARK    3  A    between atoms: O3_3  and  C14_22 
REMARK    4  A    between atoms: O4_4  and  C13_21 
REMARK    5  A    between atoms: O7_7  and  C17_25 
REMARK    6  A    between atoms: O8_8  and  C21_29 
REMARK    7  A    between atoms: C1_9  and  C2_10 
REMARK    8  A    between atoms: C9_17  and  C13_21 
REMARK    9  A    between atoms: C14_22  and  C15_23 
ROOT
HETATM    1  O1  UNK   900      23.687 -22.745 -73.388  1.00  0.00    -0.341 OA
HETATM    2  C1  UNK   900      24.288 -23.496 -74.476  1.00  0.00     0.167 C 
HETATM    3  C3  UNK   900      25.383 -22.636 -75.127  1.00  0.00     0.080 C 
HETATM    4  C4  UNK   900      25.654 -21.710 -74.005  1.00  0.00     0.013 A 
HETATM    5  C5  UNK   900      24.637 -21.809 -73.066  1.00  0.00     0.096 A 
HETATM    6  C8  UNK   900      26.683 -20.801 -73.842  1.00  0.00     0.089 A 
HETATM    7  C9  UNK   900      24.601 -21.011 -71.939  1.00  0.00     0.077 A 
HETATM    8  C10 UNK   900      25.639 -20.097 -71.758  1.00  0.00    -0.040 A 
HETATM    9  C11 UNK   900      26.674 -19.993 -72.702  1.00  0.00     0.045 A 
HETATM   10  C12 UNK   900      25.673 -19.203 -70.559  1.00  0.00     0.049 C 
ENDROOT
BRANCH   6  11
HETATM   11  O3  UNK   900      27.674 -20.685 -74.762  1.00  0.00    -0.274 OA
BRANCH  11  12
HETATM   12  C14 UNK   900      27.445 -19.712 -75.740  1.00  0.00     0.301 C 
HETATM   13  O6  UNK   900      27.404 -18.507 -75.545  1.00  0.00    -0.259 OA
BRANCH  12  14
HETATM   14  C15 UNK   900      27.241 -20.326 -77.077  1.00  0.00     0.079 A 
HETATM   15  C16 UNK   900      25.985 -20.288 -77.683  1.00  0.00    -0.040 A 
HETATM   16  C18 UNK   900      25.798 -20.869 -78.937  1.00  0.00     0.044 A 
HETATM   17  C20 UNK   900      24.822 -19.632 -77.013  1.00  0.00     0.049 C 
HETATM   18  C21 UNK   900      26.867 -21.488 -79.586  1.00  0.00     0.068 A 
HETATM   19  C19 UNK   900      28.122 -21.527 -78.979  1.00  0.00     0.074 A 
HETATM   20  C17 UNK   900      28.310 -20.946 -77.724  1.00  0.00     0.085 A 
BRANCH  18  21
HETATM   21  O8  UNK   900      26.686 -22.055 -80.810  1.00  0.00    -0.361 OA
HETATM   22  H22 UNK   900      26.105 -21.482 -81.340  1.00  0.00     0.217 HD
ENDBRANCH  18  21
BRANCH  20  23
HETATM   23  O7  UNK   900      29.544 -20.996 -77.149  1.00  0.00    -0.360 OA
HETATM   24  H21 UNK   900      30.086 -21.687 -77.563  1.00  0.00     0.217 HD
ENDBRANCH  20  23
ENDBRANCH  12  14
ENDBRANCH  11  12
ENDBRANCH   6  11
BRANCH   2  25
HETATM   25  C2  UNK   900      23.200 -23.896 -75.458  1.00  0.00     0.077 C 
HETATM   26  C6  UNK   900      22.915 -22.771 -76.455  1.00  0.00     0.048 C 
HETATM   27  C7  UNK   900      23.578 -25.180 -76.200  1.00  0.00     0.048 C 
BRANCH  25  28
HETATM   28  O2  UNK   900      21.997 -24.166 -74.732  1.00  0.00    -0.388 OA
HETATM   29  H11 UNK   900      22.242 -24.429 -73.828  1.00  0.00     0.210 HD
ENDBRANCH  25  28
ENDBRANCH   2  25
BRANCH   7  30
HETATM   30  C13 UNK   900      23.515 -21.136 -70.978  1.00  0.00     0.179 C 
HETATM   31  O5  UNK   900      23.644 -21.453 -69.791  1.00  0.00    -0.646 OA
BRANCH  30  32
HETATM   32  O4  UNK   900      22.301 -20.860 -71.527  1.00  0.00    -0.773 OA
HETATM   33  H15 UNK   900      22.352 -20.125 -72.174  1.00  0.00     0.167 HD
ENDBRANCH  30  32
ENDBRANCH   7  30
TORSDOF 9
ENDMDL
MODEL 9
REMARK VINA RESULT:      -6.3     10.178     13.494
REMARK  9 active torsions:
REMARK  status: ('A' for Active; 'I' for Inactive)
REMARK    1  A    between atoms: O2_2  and  C2_10 
REMARK    2  A    between atoms: O3_3  and  C8_16 
REMARK    3  A    between atoms: O3_3  and  C14_22 
REMARK    4  A    between atoms: O4_4  and  C13_21 
REMARK    5  A    between atoms: O7_7  and  C17_25 
REMARK    6  A    between atoms: O8_8  and  C21_29 
REMARK    7  A    between atoms: C1_9  and  C2_10 
REMARK    8  A    between atoms: C9_17  and  C13_21 
REMARK    9  A    between atoms: C14_22  and  C15_23 
ROOT
HETATM    1  O1  UNK   900      35.415 -35.378 -59.507  1.00  0.00    -0.341 OA
HETATM    2  C1  UNK   900      36.721 -35.583 -60.107  1.00  0.00     0.167 C 
HETATM    3  C3  UNK   900      37.631 -36.284 -59.086  1.00  0.00     0.080 C 
HETATM    4  C4  UNK   900      36.593 -36.884 -58.218  1.00  0.00     0.013 A 
HETATM    5  C5  UNK   900      35.365 -36.304 -58.497  1.00  0.00     0.096 A 
HETATM    6  C8  UNK   900      36.722 -37.826 -57.214  1.00  0.00     0.089 A 
HETATM    7  C9  UNK   900      34.224 -36.633 -57.791  1.00  0.00     0.077 A 
HETATM    8  C10 UNK   900      34.337 -37.590 -56.782  1.00  0.00    -0.040 A 
HETATM    9  C11 UNK   900      35.578 -38.185 -56.496  1.00  0.00     0.045 A 
HETATM   10  C12 UNK   900      33.145 -38.003 -55.978  1.00  0.00     0.049 C 
ENDROOT
BRANCH   6  11
HETATM   11  O3  UNK   900      37.922 -38.388 -56.924  1.00  0.00    -0.274 OA
BRANCH  11  12
HETATM   12  C14 UNK   900      37.966 -39.777 -57.086  1.00  0.00     0.301 C 
HETATM   13  O6  UNK   900      38.165 -40.588 -56.195  1.00  0.00    -0.259 OA
BRANCH  12  14
HETATM   14  C15 UNK   900      37.748 -40.163 -58.503  1.00  0.00     0.079 A 
HETATM   15  C16 UNK   900      38.683 -39.816 -59.478  1.00  0.00    -0.040 A 
HETATM   16  C18 UNK   900      38.472 -40.178 -60.808  1.00  0.00     0.044 A 
HETATM   17  C20 UNK   900      39.919 -39.054 -59.127  1.00  0.00     0.049 C 
HETATM   18  C21 UNK   900      37.325 -40.889 -61.164  1.00  0.00     0.068 A 
HETATM   19  C19 UNK   900      36.391 -41.237 -60.189  1.00  0.00     0.074 A 
HETATM   20  C17 UNK   900      36.601 -40.874 -58.858  1.00  0.00     0.085 A 
BRANCH  18  21
HETATM   21  O8  UNK   900      37.119 -41.245 -62.461  1.00  0.00    -0.361 OA
HETATM   22  H22 UNK   900      36.848 -40.457 -62.965  1.00  0.00     0.217 HD
ENDBRANCH  18  21
BRANCH  20  23
HETATM   23  O7  UNK   900      35.674 -41.223 -57.922  1.00  0.00    -0.360 OA
HETATM   24  H21 UNK   900      36.102 -41.411 -57.071  1.00  0.00     0.217 HD
ENDBRANCH  20  23
ENDBRANCH  12  14
ENDBRANCH  11  12
ENDBRANCH   6  11
BRANCH   2  25
HETATM   25  C2  UNK   900      37.273 -34.240 -60.554  1.00  0.00     0.077 C 
HETATM   26  C6  UNK   900      37.401 -33.274 -59.373  1.00  0.00     0.048 C 
HETATM   27  C7  UNK   900      38.626 -34.409 -61.249  1.00  0.00     0.048 C 
BRANCH  25  28
HETATM   28  O2  UNK   900      36.376 -33.664 -61.508  1.00  0.00    -0.388 OA
HETATM   29  H11 UNK   900      35.617 -33.295 -61.025  1.00  0.00     0.210 HD
ENDBRANCH  25  28
ENDBRANCH   2  25
BRANCH   7  30
HETATM   30  C13 UNK   900      32.951 -36.000 -58.104  1.00  0.00     0.179 C 
HETATM   31  O5  UNK   900      32.653 -34.829 -57.848  1.00  0.00    -0.646 OA
BRANCH  30  32
HETATM   32  O4  UNK   900      32.089 -36.848 -58.729  1.00  0.00    -0.773 OA
HETATM   33  H15 UNK   900      31.176 -36.490 -58.750  1.00  0.00     0.167 HD
ENDBRANCH  30  32
ENDBRANCH   7  30
TORSDOF 9
ENDMDL
