MODEL 1
REMARK VINA RESULT:      -5.3      0.000      0.000
REMARK  3 active torsions:
REMARK  status: ('A' for Active; 'I' for Inactive)
REMARK    1  A    between atoms: O1_1  and  C4_8 
REMARK    2  A    between atoms: O2_2  and  C9_13 
REMARK    3  A    between atoms: C3_7  and  C9_13 
ROOT
HETATM    1  O3  UNK   900      28.196 -19.014 -73.934  1.00  0.00    -0.313 OA
HETATM    2  O4  UNK   900      26.512 -17.795 -72.959  1.00  0.00    -0.260 OA
HETATM    3  C1  UNK   900      24.443 -22.682 -73.389  1.00  0.00     0.023 C 
HETATM    4  C2  UNK   900      25.727 -23.061 -74.177  1.00  0.00    -0.003 C 
HETATM    5  C3  UNK   900      23.913 -22.776 -75.783  1.00  0.00     0.004 C 
HETATM    6  C4  UNK   900      23.461 -22.139 -74.453  1.00  0.00     0.133 C 
HETATM    7  C5  UNK   900      25.440 -22.689 -75.645  1.00  0.00     0.019 C 
HETATM    8  C6  UNK   900      24.621 -21.794 -72.131  1.00  0.00    -0.007 C 
HETATM    9  C7  UNK   900      27.081 -22.550 -73.674  1.00  0.00     0.042 C 
HETATM   10  C8  UNK   900      25.087 -20.346 -72.394  1.00  0.00     0.050 C 
HETATM   11  C10 UNK   900      23.442 -24.232 -75.945  1.00  0.00     0.020 C 
HETATM   12  C11 UNK   900      27.231 -21.068 -73.615  1.00  0.00    -0.043 A 
HETATM   13  C12 UNK   900      26.384 -20.182 -73.096  1.00  0.00     0.022 A 
HETATM   14  C13 UNK   900      23.324 -21.747 -71.308  1.00  0.00     0.011 C 
HETATM   15  C14 UNK   900      28.429 -20.404 -74.171  1.00  0.00     0.214 A 
HETATM   16  C15 UNK   900      26.997 -18.859 -73.301  1.00  0.00     0.289 A 
ENDROOT
BRANCH   5  17
HETATM   17  C9  UNK   900      23.423 -21.967 -76.991  1.00  0.00     0.175 C 
BRANCH  17  18
HETATM   18  O2  UNK   900      22.663 -20.875 -76.513  1.00  0.00    -0.400 OA
HETATM   19  H22 UNK   900      22.522 -21.017 -75.561  1.00  0.00     0.209 HD
ENDBRANCH  17  18
ENDBRANCH   5  17
BRANCH   6  20
HETATM   20  O1  UNK   900      22.123 -22.468 -74.122  1.00  0.00    -0.394 OA
HETATM   21  H19 UNK   900      21.769 -21.745 -73.577  1.00  0.00     0.210 HD
ENDBRANCH   6  20
TORSDOF 3
ENDMDL
MODEL 2
REMARK VINA RESULT:      -5.3     22.381     23.924
REMARK  3 active torsions:
REMARK  status: ('A' for Active; 'I' for Inactive)
REMARK    1  A    between atoms: O1_1  and  C4_8 
REMARK    2  A    between atoms: O2_2  and  C9_13 
REMARK    3  A    between atoms: C3_7  and  C9_13 
ROOT
HETATM    1  O3  UNK   900      35.788 -30.993 -58.188  1.00  0.00    -0.313 OA
HETATM    2  O4  UNK   900      38.029 -31.180 -58.647  1.00  0.00    -0.260 OA
HETATM    3  C1  UNK   900      36.235 -36.175 -59.068  1.00  0.00     0.023 C 
HETATM    4  C2  UNK   900      34.873 -35.637 -58.550  1.00  0.00    -0.003 C 
HETATM    5  C3  UNK   900      35.972 -36.797 -56.708  1.00  0.00     0.004 C 
HETATM    6  C4  UNK   900      37.035 -36.537 -57.795  1.00  0.00     0.133 C 
HETATM    7  C5  UNK   900      34.964 -35.680 -57.013  1.00  0.00     0.019 C 
HETATM    8  C6  UNK   900      36.991 -35.308 -60.107  1.00  0.00    -0.007 C 
HETATM    9  C7  UNK   900      34.354 -34.300 -59.091  1.00  0.00     0.042 C 
HETATM   10  C8  UNK   900      37.533 -33.961 -59.587  1.00  0.00     0.050 C 
HETATM   11  C10 UNK   900      35.325 -38.189 -56.819  1.00  0.00     0.020 C 
HETATM   12  C11 UNK   900      35.223 -33.117 -58.835  1.00  0.00    -0.043 A 
HETATM   13  C12 UNK   900      36.535 -33.011 -59.033  1.00  0.00     0.022 A 
HETATM   14  C13 UNK   900      38.154 -36.095 -60.730  1.00  0.00     0.011 C 
HETATM   15  C14 UNK   900      34.658 -31.861 -58.298  1.00  0.00     0.214 A 
HETATM   16  C15 UNK   900      36.905 -31.649 -58.616  1.00  0.00     0.289 A 
ENDROOT
BRANCH   5  17
HETATM   17  C9  UNK   900      36.558 -36.641 -55.299  1.00  0.00     0.175 C 
BRANCH  17  18
HETATM   18  O2  UNK   900      35.487 -36.533 -54.384  1.00  0.00    -0.400 OA
HETATM   19  H22 UNK   900      34.827 -35.940 -54.782  1.00  0.00     0.209 HD
ENDBRANCH  17  18
ENDBRANCH   5  17
BRANCH   6  20
HETATM   20  O1  UNK   900      37.865 -37.664 -58.022  1.00  0.00    -0.394 OA
HETATM   21  H19 UNK   900      37.719 -37.956 -58.938  1.00  0.00     0.210 HD
ENDBRANCH   6  20
TORSDOF 3
ENDMDL
MODEL 3
REMARK VINA RESULT:      -5.2     40.802     42.808
REMARK  3 active torsions:
REMARK  status: ('A' for Active; 'I' for Inactive)
REMARK    1  A    between atoms: O1_1  and  C4_8 
REMARK    2  A    between atoms: O2_2  and  C9_13 
REMARK    3  A    between atoms: C3_7  and  C9_13 
ROOT
HETATM    1  O3  UNK   900      12.889 -63.577 -66.522  1.00  0.00    -0.313 OA
HETATM    2  O4  UNK   900      13.010 -61.330 -66.071  1.00  0.00    -0.260 OA
HETATM    3  C1  UNK   900      11.779 -61.512 -71.248  1.00  0.00     0.023 C 
HETATM    4  C2  UNK   900      11.966 -63.051 -71.149  1.00  0.00    -0.003 C 
HETATM    5  C3  UNK   900      13.939 -62.121 -72.239  1.00  0.00     0.004 C 
HETATM    6  C4  UNK   900      13.185 -60.954 -71.570  1.00  0.00     0.133 C 
HETATM    7  C5  UNK   900      13.468 -63.304 -71.382  1.00  0.00     0.019 C 
HETATM    8  C6  UNK   900      11.035 -60.812 -70.082  1.00  0.00    -0.007 C 
HETATM    9  C7  UNK   900      11.409 -63.785 -69.924  1.00  0.00     0.042 C 
HETATM   10  C8  UNK   900      11.773 -60.802 -68.727  1.00  0.00     0.050 C 
HETATM   11  C10 UNK   900      13.565 -62.311 -73.720  1.00  0.00     0.020 C 
HETATM   12  C11 UNK   900      11.965 -63.363 -68.608  1.00  0.00    -0.043 A 
HETATM   13  C12 UNK   900      12.120 -62.124 -68.148  1.00  0.00     0.022 A 
HETATM   14  C13 UNK   900      10.676 -59.365 -70.454  1.00  0.00     0.011 C 
HETATM   15  C14 UNK   900      12.429 -64.363 -67.624  1.00  0.00     0.214 A 
HETATM   16  C15 UNK   900      12.717 -62.255 -66.808  1.00  0.00     0.289 A 
ENDROOT
BRANCH   5  17
HETATM   17  C9  UNK   900      15.459 -61.939 -72.140  1.00  0.00     0.175 C 
BRANCH  17  18
HETATM   18  O2  UNK   900      15.865 -61.041 -73.152  1.00  0.00    -0.400 OA
HETATM   19  H22 UNK   900      15.902 -61.543 -73.984  1.00  0.00     0.209 HD
ENDBRANCH  17  18
ENDBRANCH   5  17
BRANCH   6  20
HETATM   20  O1  UNK   900      13.097 -59.814 -72.408  1.00  0.00    -0.394 OA
HETATM   21  H19 UNK   900      12.262 -59.361 -72.200  1.00  0.00     0.210 HD
ENDBRANCH   6  20
TORSDOF 3
ENDMDL
MODEL 4
REMARK VINA RESULT:      -5.0     15.127     17.497
REMARK  3 active torsions:
REMARK  status: ('A' for Active; 'I' for Inactive)
REMARK    1  A    between atoms: O1_1  and  C4_8 
REMARK    2  A    between atoms: O2_2  and  C9_13 
REMARK    3  A    between atoms: C3_7  and  C9_13 
ROOT
HETATM    1  O3  UNK   900      11.759 -24.783 -81.806  1.00  0.00    -0.313 OA
HETATM    2  O4  UNK   900      12.524 -24.164 -79.732  1.00  0.00    -0.260 OA
HETATM    3  C1  UNK   900       9.794 -28.635 -78.784  1.00  0.00     0.023 C 
HETATM    4  C2  UNK   900       9.362 -28.584 -80.276  1.00  0.00    -0.003 C 
HETATM    5  C3  UNK   900       7.480 -27.829 -78.922  1.00  0.00     0.004 C 
HETATM    6  C4  UNK   900       8.738 -27.793 -78.030  1.00  0.00     0.133 C 
HETATM    7  C5  UNK   900       8.106 -27.692 -80.316  1.00  0.00     0.019 C 
HETATM    8  C6  UNK   900      11.271 -28.295 -78.462  1.00  0.00    -0.007 C 
HETATM    9  C7  UNK   900      10.407 -28.212 -81.334  1.00  0.00     0.042 C 
HETATM   10  C8  UNK   900      11.689 -26.830 -78.705  1.00  0.00     0.050 C 
HETATM   11  C10 UNK   900       6.681 -29.137 -78.785  1.00  0.00     0.020 C 
HETATM   12  C11 UNK   900      11.023 -26.863 -81.188  1.00  0.00    -0.043 A 
HETATM   13  C12 UNK   900      11.529 -26.312 -80.087  1.00  0.00     0.022 A 
HETATM   14  C13 UNK   900      11.612 -28.666 -77.010  1.00  0.00     0.011 C 
HETATM   15  C14 UNK   900      11.135 -25.951 -82.345  1.00  0.00     0.214 A 
HETATM   16  C15 UNK   900      12.001 -24.973 -80.477  1.00  0.00     0.289 A 
ENDROOT
BRANCH   5  17
HETATM   17  C9  UNK   900       6.543 -26.652 -78.621  1.00  0.00     0.175 C 
BRANCH  17  18
HETATM   18  O2  UNK   900       6.058 -26.798 -77.302  1.00  0.00    -0.400 OA
HETATM   19  H22 UNK   900       5.207 -27.264 -77.358  1.00  0.00     0.209 HD
ENDBRANCH  17  18
ENDBRANCH   5  17
BRANCH   6  20
HETATM   20  O1  UNK   900       8.500 -28.321 -76.736  1.00  0.00    -0.394 OA
HETATM   21  H19 UNK   900       9.145 -27.917 -76.132  1.00  0.00     0.210 HD
ENDBRANCH   6  20
TORSDOF 3
ENDMDL
MODEL 5
REMARK VINA RESULT:      -4.9      6.474      9.297
REMARK  3 active torsions:
REMARK  status: ('A' for Active; 'I' for Inactive)
REMARK    1  A    between atoms: O1_1  and  C4_8 
REMARK    2  A    between atoms: O2_2  and  C9_13 
REMARK    3  A    between atoms: C3_7  and  C9_13 
ROOT
HETATM    1  O3  UNK   900      19.286 -20.136 -65.090  1.00  0.00    -0.313 OA
HETATM    2  O4  UNK   900      20.468 -21.835 -64.097  1.00  0.00    -0.260 OA
HETATM    3  C1  UNK   900      24.238 -18.832 -66.359  1.00  0.00     0.023 C 
HETATM    4  C2  UNK   900      23.081 -18.009 -66.990  1.00  0.00    -0.003 C 
HETATM    5  C3  UNK   900      24.004 -19.457 -68.721  1.00  0.00     0.004 C 
HETATM    6  C4  UNK   900      24.508 -19.979 -67.360  1.00  0.00     0.133 C 
HETATM    7  C5  UNK   900      22.717 -18.736 -68.299  1.00  0.00     0.019 C 
HETATM    8  C6  UNK   900      24.076 -19.262 -64.879  1.00  0.00    -0.007 C 
HETATM    9  C7  UNK   900      21.862 -17.666 -66.126  1.00  0.00     0.042 C 
HETATM   10  C8  UNK   900      22.966 -20.297 -64.600  1.00  0.00     0.050 C 
HETATM   11  C10 UNK   900      24.995 -18.496 -69.401  1.00  0.00     0.020 C 
HETATM   12  C11 UNK   900      21.101 -18.830 -65.590  1.00  0.00    -0.043 A 
HETATM   13  C12 UNK   900      21.585 -19.909 -64.980  1.00  0.00     0.022 A 
HETATM   14  C13 UNK   900      25.401 -19.804 -64.321  1.00  0.00     0.011 C 
HETATM   15  C14 UNK   900      19.628 -18.888 -65.698  1.00  0.00     0.214 A 
HETATM   16  C15 UNK   900      20.423 -20.755 -64.659  1.00  0.00     0.289 A 
ENDROOT
BRANCH   5  17
HETATM   17  C9  UNK   900      23.699 -20.608 -69.688  1.00  0.00     0.175 C 
BRANCH  17  18
HETATM   18  O2  UNK   900      24.696 -21.597 -69.528  1.00  0.00    -0.400 OA
HETATM   19  H22 UNK   900      25.494 -21.150 -69.198  1.00  0.00     0.209 HD
ENDBRANCH  17  18
ENDBRANCH   5  17
BRANCH   6  20
HETATM   20  O1  UNK   900      25.885 -20.316 -67.384  1.00  0.00    -0.394 OA
HETATM   21  H19 UNK   900      26.061 -20.887 -66.618  1.00  0.00     0.210 HD
ENDBRANCH   6  20
TORSDOF 3
ENDMDL
MODEL 6
REMARK VINA RESULT:      -4.9     15.902     19.331
REMARK  3 active torsions:
REMARK  status: ('A' for Active; 'I' for Inactive)
REMARK    1  A    between atoms: O1_1  and  C4_8 
REMARK    2  A    between atoms: O2_2  and  C9_13 
REMARK    3  A    between atoms: C3_7  and  C9_13 
ROOT
HETATM    1  O3  UNK   900      20.085 -25.433 -95.190  1.00  0.00    -0.313 OA
HETATM    2  O4  UNK   900      22.012 -26.622 -95.567  1.00  0.00    -0.260 OA
HETATM    3  C1  UNK   900      20.869 -27.653 -90.470  1.00  0.00     0.023 C 
HETATM    4  C2  UNK   900      19.727 -26.608 -90.605  1.00  0.00    -0.003 C 
HETATM    5  C3  UNK   900      21.563 -25.564 -89.385  1.00  0.00     0.004 C 
HETATM    6  C4  UNK   900      22.116 -26.837 -90.057  1.00  0.00     0.133 C 
HETATM    7  C5  UNK   900      20.373 -25.243 -90.301  1.00  0.00     0.019 C 
HETATM    8  C6  UNK   900      21.075 -28.634 -91.652  1.00  0.00    -0.007 C 
HETATM    9  C7  UNK   900      18.875 -26.607 -91.879  1.00  0.00     0.042 C 
HETATM   10  C8  UNK   900      21.584 -28.003 -92.965  1.00  0.00     0.050 C 
HETATM   11  C10 UNK   900      21.111 -25.798 -87.933  1.00  0.00     0.020 C 
HETATM   12  C11 UNK   900      19.612 -26.364 -93.151  1.00  0.00    -0.043 A 
HETATM   13  C12 UNK   900      20.737 -26.942 -93.565  1.00  0.00     0.022 A 
HETATM   14  C13 UNK   900      22.028 -29.773 -91.256  1.00  0.00     0.011 C 
HETATM   15  C14 UNK   900      19.118 -25.382 -94.139  1.00  0.00     0.214 A 
HETATM   16  C15 UNK   900      21.048 -26.345 -94.875  1.00  0.00     0.289 A 
ENDROOT
BRANCH   5  17
HETATM   17  C9  UNK   900      22.592 -24.427 -89.399  1.00  0.00     0.175 C 
BRANCH  17  18
HETATM   18  O2  UNK   900      23.640 -24.768 -88.515  1.00  0.00    -0.400 OA
HETATM   19  H22 UNK   900      23.717 -25.737 -88.521  1.00  0.00     0.209 HD
ENDBRANCH  17  18
ENDBRANCH   5  17
BRANCH   6  20
HETATM   20  O1  UNK   900      22.949 -27.589 -89.192  1.00  0.00    -0.394 OA
HETATM   21  H19 UNK   900      22.924 -27.165 -88.318  1.00  0.00     0.210 HD
ENDBRANCH   6  20
TORSDOF 3
ENDMDL
MODEL 7
REMARK VINA RESULT:      -4.8     47.572     49.766
REMARK  3 active torsions:
REMARK  status: ('A' for Active; 'I' for Inactive)
REMARK    1  A    between atoms: O1_1  and  C4_8 
REMARK    2  A    between atoms: O2_2  and  C9_13 
REMARK    3  A    between atoms: C3_7  and  C9_13 
ROOT
HETATM    1  O3  UNK   900      -2.014 -64.113 -62.978  1.00  0.00    -0.313 OA
HETATM    2  O4  UNK   900      -2.335 -63.282 -60.862  1.00  0.00    -0.260 OA
HETATM    3  C1  UNK   900       2.745 -62.094 -61.927  1.00  0.00     0.023 C 
HETATM    4  C2  UNK   900       2.573 -62.919 -63.232  1.00  0.00    -0.003 C 
HETATM    5  C3  UNK   900       3.825 -64.280 -61.641  1.00  0.00     0.004 C 
HETATM    6  C4  UNK   900       3.178 -63.121 -60.854  1.00  0.00     0.133 C 
HETATM    7  C5  UNK   900       2.878 -64.379 -62.845  1.00  0.00     0.019 C 
HETATM    8  C6  UNK   900       1.578 -61.159 -61.521  1.00  0.00    -0.007 C 
HETATM    9  C7  UNK   900       1.281 -62.761 -64.040  1.00  0.00     0.042 C 
HETATM   10  C8  UNK   900       0.271 -61.862 -61.101  1.00  0.00     0.050 C 
HETATM   11  C10 UNK   900       5.269 -63.978 -62.079  1.00  0.00     0.020 C 
HETATM   12  C11 UNK   900       0.024 -63.125 -63.327  1.00  0.00    -0.043 A 
HETATM   13  C12 UNK   900      -0.359 -62.753 -62.108  1.00  0.00     0.022 A 
HETATM   14  C13 UNK   900       2.007 -60.210 -60.391  1.00  0.00     0.011 C 
HETATM   15  C14 UNK   900      -0.986 -63.997 -63.964  1.00  0.00     0.214 A 
HETATM   16  C15 UNK   900      -1.667 -63.388 -61.876  1.00  0.00     0.289 A 
ENDROOT
BRANCH   5  17
HETATM   17  C9  UNK   900       3.823 -65.582 -60.829  1.00  0.00     0.175 C 
BRANCH  17  18
HETATM   18  O2  UNK   900       4.643 -65.397 -59.694  1.00  0.00    -0.400 OA
HETATM   19  H22 UNK   900       5.479 -65.009 -60.003  1.00  0.00     0.209 HD
ENDBRANCH  17  18
ENDBRANCH   5  17
BRANCH   6  20
HETATM   20  O1  UNK   900       4.069 -62.534 -59.922  1.00  0.00    -0.394 OA
HETATM   21  H19 UNK   900       4.893 -62.327 -60.394  1.00  0.00     0.210 HD
ENDBRANCH   6  20
TORSDOF 3
ENDMDL
MODEL 8
REMARK VINA RESULT:      -4.8     34.755     37.689
REMARK  3 active torsions:
REMARK  status: ('A' for Active; 'I' for Inactive)
REMARK    1  A    between atoms: O1_1  and  C4_8 
REMARK    2  A    between atoms: O2_2  and  C9_13 
REMARK    3  A    between atoms: C3_7  and  C9_13 
ROOT
HETATM    1  O3  UNK   900       4.911 -56.382 -79.563  1.00  0.00    -0.313 OA
HETATM    2  O4  UNK   900       3.859 -54.643 -78.494  1.00  0.00    -0.260 OA
HETATM    3  C1  UNK   900       8.957 -53.117 -78.671  1.00  0.00     0.023 C 
HETATM    4  C2  UNK   900       9.268 -54.526 -79.246  1.00  0.00    -0.003 C 
HETATM    5  C3  UNK   900       9.941 -54.505 -76.901  1.00  0.00     0.004 C 
HETATM    6  C4  UNK   900       9.028 -53.284 -77.135  1.00  0.00     0.133 C 
HETATM    7  C5  UNK   900       9.468 -55.441 -78.022  1.00  0.00     0.019 C 
HETATM    8  C6  UNK   900       7.694 -52.397 -79.206  1.00  0.00    -0.007 C 
HETATM    9  C7  UNK   900       8.327 -55.118 -80.300  1.00  0.00     0.042 C 
HETATM   10  C8  UNK   900       6.344 -53.035 -78.817  1.00  0.00     0.050 C 
HETATM   11  C10 UNK   900      11.437 -54.173 -77.036  1.00  0.00     0.020 C 
HETATM   12  C11 UNK   900       6.913 -55.311 -79.870  1.00  0.00    -0.043 A 
HETATM   13  C12 UNK   900       6.125 -54.440 -79.244  1.00  0.00     0.022 A 
HETATM   14  C13 UNK   900       7.680 -50.923 -78.770  1.00  0.00     0.011 C 
HETATM   15  C14 UNK   900       6.211 -56.587 -80.121  1.00  0.00     0.214 A 
HETATM   16  C15 UNK   900       4.837 -55.124 -79.041  1.00  0.00     0.289 A 
ENDROOT
BRANCH   5  17
HETATM   17  C9  UNK   900       9.701 -55.132 -75.522  1.00  0.00     0.175 C 
BRANCH  17  18
HETATM   18  O2  UNK   900      10.230 -54.261 -74.543  1.00  0.00    -0.400 OA
HETATM   19  H22 UNK   900      10.552 -54.814 -73.810  1.00  0.00     0.209 HD
ENDBRANCH  17  18
ENDBRANCH   5  17
BRANCH   6  20
HETATM   20  O1  UNK   900       9.528 -52.108 -76.521  1.00  0.00    -0.394 OA
HETATM   21  H19 UNK   900      10.400 -51.923 -76.908  1.00  0.00     0.210 HD
ENDBRANCH   6  20
TORSDOF 3
ENDMDL
MODEL 9
REMARK VINA RESULT:      -4.7     15.417     17.100
REMARK  3 active torsions:
REMARK  status: ('A' for Active; 'I' for Inactive)
REMARK    1  A    between atoms: O1_1  and  C4_8 
REMARK    2  A    between atoms: O2_2  and  C9_13 
REMARK    3  A    between atoms: C3_7  and  C9_13 
ROOT
HETATM    1  O3  UNK   900      25.296 -23.268 -90.839  1.00  0.00    -0.313 OA
HETATM    2  O4  UNK   900      23.369 -22.145 -90.295  1.00  0.00    -0.260 OA
HETATM    3  C1  UNK   900      22.189 -27.237 -89.280  1.00  0.00     0.023 C 
HETATM    4  C2  UNK   900      23.568 -27.589 -89.902  1.00  0.00    -0.003 C 
HETATM    5  C3  UNK   900      21.845 -28.116 -91.545  1.00  0.00     0.004 C 
HETATM    6  C4  UNK   900      21.204 -27.214 -90.471  1.00  0.00     0.133 C 
HETATM    7  C5  UNK   900      23.322 -27.717 -91.417  1.00  0.00     0.019 C 
HETATM    8  C6  UNK   900      22.130 -26.005 -88.341  1.00  0.00    -0.007 C 
HETATM    9  C7  UNK   900      24.780 -26.717 -89.554  1.00  0.00     0.042 C 
HETATM   10  C8  UNK   900      22.360 -24.637 -89.016  1.00  0.00     0.050 C 
HETATM   11  C10 UNK   900      21.638 -29.617 -91.273  1.00  0.00     0.020 C 
HETATM   12  C11 UNK   900      24.673 -25.280 -89.937  1.00  0.00    -0.043 A 
HETATM   13  C12 UNK   900      23.656 -24.451 -89.717  1.00  0.00     0.022 A 
HETATM   14  C13 UNK   900      20.791 -25.958 -87.587  1.00  0.00     0.011 C 
HETATM   15  C14 UNK   900      25.776 -24.601 -90.649  1.00  0.00     0.214 A 
HETATM   16  C15 UNK   900      24.048 -23.156 -90.298  1.00  0.00     0.289 A 
ENDROOT
BRANCH   5  17
HETATM   17  C9  UNK   900      21.307 -27.795 -92.945  1.00  0.00     0.175 C 
BRANCH  17  18
HETATM   18  O2  UNK   900      20.039 -27.188 -92.803  1.00  0.00    -0.400 OA
HETATM   19  H22 UNK   900      19.400 -27.896 -92.611  1.00  0.00     0.209 HD
ENDBRANCH  17  18
ENDBRANCH   5  17
BRANCH   6  20
HETATM   20  O1  UNK   900      19.921 -27.669 -90.075  1.00  0.00    -0.394 OA
HETATM   21  H19 UNK   900      19.287 -27.390 -90.757  1.00  0.00     0.210 HD
ENDBRANCH   6  20
TORSDOF 3
ENDMDL
