MODEL 1
REMARK VINA RESULT:      -7.9      0.000      0.000
REMARK  2 active torsions:
REMARK  status: ('A' for Active; 'I' for Inactive)
REMARK    1  A    between atoms: O1_1  and  C12_14 
REMARK    2  A    between atoms: C4_6  and  C12_14 
ROOT
HETATM    1  O2  UNK   900      20.516 -38.577 -65.175  1.00  0.00    -0.292 OA
HETATM    2  C1  UNK   900      23.669 -38.171 -66.830  1.00  0.00    -0.000 C 
HETATM    3  C2  UNK   900      24.621 -37.237 -66.008  1.00  0.00     0.010 C 
HETATM    4  C3  UNK   900      22.232 -37.614 -66.622  1.00  0.00     0.033 C 
HETATM    5  C4  UNK   900      23.735 -36.300 -65.152  1.00  0.00    -0.017 C 
HETATM    6  C5  UNK   900      24.227 -38.144 -68.282  1.00  0.00    -0.005 C 
HETATM    7  C6  UNK   900      22.400 -36.256 -65.924  1.00  0.00     0.030 C 
HETATM    8  C7  UNK   900      25.518 -36.579 -67.064  1.00  0.00     0.007 C 
HETATM    9  C8  UNK   900      25.670 -37.665 -68.116  1.00  0.00     0.006 C 
HETATM   10  C9  UNK   900      23.605 -39.544 -66.202  1.00  0.00    -0.011 C 
HETATM   11  C10 UNK   900      21.605 -38.668 -65.724  1.00  0.00     0.158 C 
HETATM   12  C11 UNK   900      21.328 -37.500 -67.853  1.00  0.00     0.025 C 
HETATM   13  C13 UNK   900      23.543 -36.880 -63.734  1.00  0.00     0.018 C 
HETATM   14  C14 UNK   900      22.460 -39.854 -65.593  1.00  0.00     0.048 C 
HETATM   15  C15 UNK   900      24.141 -39.436 -69.086  1.00  0.00     0.011 C 
ENDROOT
BRANCH   5  16
HETATM   16  C12 UNK   900      24.306 -34.884 -64.974  1.00  0.00     0.173 C 
BRANCH  16  17
HETATM   17  O1  UNK   900      25.002 -34.843 -63.746  1.00  0.00    -0.400 OA
HETATM   18  H22 UNK   900      25.123 -35.761 -63.451  1.00  0.00     0.209 HD
ENDBRANCH  16  17
ENDBRANCH   5  16
TORSDOF 2
ENDMDL
MODEL 2
REMARK VINA RESULT:      -7.8      1.835      3.493
REMARK  2 active torsions:
REMARK  status: ('A' for Active; 'I' for Inactive)
REMARK    1  A    between atoms: O1_1  and  C12_14 
REMARK    2  A    between atoms: C4_6  and  C12_14 
ROOT
HETATM    1  O2  UNK   900      25.515 -35.228 -69.183  1.00  0.00    -0.292 OA
HETATM    2  C1  UNK   900      23.953 -37.907 -67.386  1.00  0.00    -0.000 C 
HETATM    3  C2  UNK   900      23.322 -37.394 -66.046  1.00  0.00     0.010 C 
HETATM    4  C3  UNK   900      25.246 -37.071 -67.602  1.00  0.00     0.033 C 
HETATM    5  C4  UNK   900      24.103 -36.130 -65.614  1.00  0.00    -0.017 C 
HETATM    6  C5  UNK   900      24.134 -39.439 -67.189  1.00  0.00    -0.005 C 
HETATM    7  C6  UNK   900      25.477 -36.299 -66.293  1.00  0.00     0.030 C 
HETATM    8  C7  UNK   900      23.379 -38.606 -65.108  1.00  0.00     0.007 C 
HETATM    9  C8  UNK   900      23.177 -39.783 -66.047  1.00  0.00     0.006 C 
HETATM   10  C9  UNK   900      23.085 -37.518 -68.560  1.00  0.00    -0.011 C 
HETATM   11  C10 UNK   900      24.856 -36.167 -68.761  1.00  0.00     0.158 C 
HETATM   12  C11 UNK   900      26.510 -37.816 -68.041  1.00  0.00     0.025 C 
HETATM   13  C13 UNK   900      23.387 -34.854 -66.110  1.00  0.00     0.018 C 
HETATM   14  C14 UNK   900      23.572 -36.562 -69.353  1.00  0.00     0.048 C 
HETATM   15  C15 UNK   900      23.916 -40.329 -68.407  1.00  0.00     0.011 C 
ENDROOT
BRANCH   5  16
HETATM   16  C12 UNK   900      24.264 -35.980 -64.093  1.00  0.00     0.173 C 
BRANCH  16  17
HETATM   17  O1  UNK   900      24.934 -34.763 -63.840  1.00  0.00    -0.400 OA
HETATM   18  H22 UNK   900      25.468 -34.558 -64.626  1.00  0.00     0.209 HD
ENDBRANCH  16  17
ENDBRANCH   5  16
TORSDOF 2
ENDMDL
MODEL 3
REMARK VINA RESULT:      -7.3      2.468      4.373
REMARK  2 active torsions:
REMARK  status: ('A' for Active; 'I' for Inactive)
REMARK    1  A    between atoms: O1_1  and  C12_14 
REMARK    2  A    between atoms: C4_6  and  C12_14 
ROOT
HETATM    1  O2  UNK   900      26.976 -35.887 -67.156  1.00  0.00    -0.292 OA
HETATM    2  C1  UNK   900      23.780 -37.509 -67.176  1.00  0.00    -0.000 C 
HETATM    3  C2  UNK   900      22.831 -36.872 -68.248  1.00  0.00     0.010 C 
HETATM    4  C3  UNK   900      24.639 -36.342 -66.612  1.00  0.00     0.033 C 
HETATM    5  C4  UNK   900      23.290 -35.411 -68.472  1.00  0.00    -0.017 C 
HETATM    6  C5  UNK   900      22.833 -38.230 -66.174  1.00  0.00    -0.005 C 
HETATM    7  C6  UNK   900      24.010 -35.049 -67.157  1.00  0.00     0.030 C 
HETATM    8  C7  UNK   900      21.420 -37.084 -67.686  1.00  0.00     0.007 C 
HETATM    9  C8  UNK   900      21.533 -38.413 -66.958  1.00  0.00     0.006 C 
HETATM   10  C9  UNK   900      24.800 -38.404 -67.839  1.00  0.00    -0.011 C 
HETATM   11  C10 UNK   900      26.007 -36.631 -67.208  1.00  0.00     0.158 C 
HETATM   12  C11 UNK   900      24.833 -36.270 -65.095  1.00  0.00     0.025 C 
HETATM   13  C13 UNK   900      24.249 -35.321 -69.678  1.00  0.00     0.018 C 
HETATM   14  C14 UNK   900      26.053 -37.947 -67.857  1.00  0.00     0.048 C 
HETATM   15  C15 UNK   900      23.326 -39.539 -65.569  1.00  0.00     0.011 C 
ENDROOT
BRANCH   5  16
HETATM   16  C12 UNK   900      22.141 -34.427 -68.750  1.00  0.00     0.173 C 
BRANCH  16  17
HETATM   17  O1  UNK   900      21.897 -34.419 -70.141  1.00  0.00    -0.400 OA
HETATM   18  H22 UNK   900      21.254 -33.712 -70.317  1.00  0.00     0.209 HD
ENDBRANCH  16  17
ENDBRANCH   5  16
TORSDOF 2
ENDMDL
MODEL 4
REMARK VINA RESULT:      -7.2      2.084      4.129
REMARK  2 active torsions:
REMARK  status: ('A' for Active; 'I' for Inactive)
REMARK    1  A    between atoms: O1_1  and  C12_14 
REMARK    2  A    between atoms: C4_6  and  C12_14 
ROOT
HETATM    1  O2  UNK   900      24.595 -36.147 -65.983  1.00  0.00    -0.292 OA
HETATM    2  C1  UNK   900      22.698 -38.541 -67.858  1.00  0.00    -0.000 C 
HETATM    3  C2  UNK   900      22.003 -37.869 -69.091  1.00  0.00     0.010 C 
HETATM    4  C3  UNK   900      22.686 -37.479 -66.723  1.00  0.00     0.033 C 
HETATM    5  C4  UNK   900      21.801 -36.371 -68.756  1.00  0.00    -0.017 C 
HETATM    6  C5  UNK   900      21.896 -39.849 -67.603  1.00  0.00    -0.005 C 
HETATM    7  C6  UNK   900      21.776 -36.342 -67.215  1.00  0.00     0.030 C 
HETATM    8  C7  UNK   900      20.742 -38.709 -69.324  1.00  0.00     0.007 C 
HETATM    9  C8  UNK   900      21.178 -40.109 -68.928  1.00  0.00     0.006 C 
HETATM   10  C9  UNK   900      24.171 -38.745 -68.129  1.00  0.00    -0.011 C 
HETATM   11  C10 UNK   900      24.148 -37.074 -66.643  1.00  0.00     0.158 C 
HETATM   12  C11 UNK   900      22.288 -37.943 -65.318  1.00  0.00     0.025 C 
HETATM   13  C13 UNK   900      22.969 -35.529 -69.313  1.00  0.00     0.018 C 
HETATM   14  C14 UNK   900      25.003 -37.952 -67.453  1.00  0.00     0.048 C 
HETATM   15  C15 UNK   900      22.680 -41.066 -67.127  1.00  0.00     0.011 C 
ENDROOT
BRANCH   5  16
HETATM   16  C12 UNK   900      20.510 -35.767 -69.332  1.00  0.00     0.173 C 
BRANCH  16  17
HETATM   17  O1  UNK   900      19.680 -35.395 -68.252  1.00  0.00    -0.400 OA
HETATM   18  H22 UNK   900      20.257 -35.231 -67.487  1.00  0.00     0.209 HD
ENDBRANCH  16  17
ENDBRANCH   5  16
TORSDOF 2
ENDMDL
MODEL 5
REMARK VINA RESULT:      -6.9      2.485      4.504
REMARK  2 active torsions:
REMARK  status: ('A' for Active; 'I' for Inactive)
REMARK    1  A    between atoms: O1_1  and  C12_14 
REMARK    2  A    between atoms: C4_6  and  C12_14 
ROOT
HETATM    1  O2  UNK   900      24.524 -35.730 -66.182  1.00  0.00    -0.292 OA
HETATM    2  C1  UNK   900      22.223 -38.107 -67.561  1.00  0.00    -0.000 C 
HETATM    3  C2  UNK   900      22.809 -38.776 -68.851  1.00  0.00     0.010 C 
HETATM    4  C3  UNK   900      22.729 -36.637 -67.569  1.00  0.00     0.033 C 
HETATM    5  C4  UNK   900      23.824 -37.787 -69.472  1.00  0.00    -0.017 C 
HETATM    6  C5  UNK   900      20.685 -38.318 -67.657  1.00  0.00    -0.005 C 
HETATM    7  C6  UNK   900      23.359 -36.412 -68.953  1.00  0.00     0.030 C 
HETATM    8  C7  UNK   900      21.577 -39.133 -69.691  1.00  0.00     0.007 C 
HETATM    9  C8  UNK   900      20.530 -39.476 -68.644  1.00  0.00     0.006 C 
HETATM   10  C9  UNK   900      22.866 -38.691 -66.325  1.00  0.00    -0.011 C 
HETATM   11  C10 UNK   900      23.754 -36.643 -66.447  1.00  0.00     0.158 C 
HETATM   12  C11 UNK   900      21.721 -35.535 -67.229  1.00  0.00     0.025 C 
HETATM   13  C13 UNK   900      25.257 -38.109 -68.996  1.00  0.00     0.018 C 
HETATM   14  C14 UNK   900      23.712 -37.891 -65.674  1.00  0.00     0.048 C 
HETATM   15  C15 UNK   900      19.934 -38.571 -66.355  1.00  0.00     0.011 C 
ENDROOT
BRANCH   5  16
HETATM   16  C12 UNK   900      23.858 -37.804 -71.009  1.00  0.00     0.173 C 
BRANCH  16  17
HETATM   17  O1  UNK   900      24.753 -38.817 -71.417  1.00  0.00    -0.400 OA
HETATM   18  H22 UNK   900      24.401 -39.200 -72.239  1.00  0.00     0.209 HD
ENDBRANCH  16  17
ENDBRANCH   5  16
TORSDOF 2
ENDMDL
MODEL 6
REMARK VINA RESULT:      -5.5     13.241     15.241
REMARK  2 active torsions:
REMARK  status: ('A' for Active; 'I' for Inactive)
REMARK    1  A    between atoms: O1_1  and  C12_14 
REMARK    2  A    between atoms: C4_6  and  C12_14 
ROOT
HETATM    1  O2  UNK   900      38.334 -36.712 -57.162  1.00  0.00    -0.292 OA
HETATM    2  C1  UNK   900      34.830 -37.438 -56.975  1.00  0.00    -0.000 C 
HETATM    3  C2  UNK   900      34.015 -36.545 -57.973  1.00  0.00     0.010 C 
HETATM    4  C3  UNK   900      36.000 -36.553 -56.461  1.00  0.00     0.033 C 
HETATM    5  C4  UNK   900      34.827 -35.250 -58.214  1.00  0.00    -0.017 C 
HETATM    6  C5  UNK   900      33.793 -37.913 -55.917  1.00  0.00    -0.005 C 
HETATM    7  C6  UNK   900      35.700 -35.126 -56.949  1.00  0.00     0.030 C 
HETATM    8  C7  UNK   900      32.637 -36.396 -57.316  1.00  0.00     0.007 C 
HETATM    9  C8  UNK   900      32.443 -37.727 -56.610  1.00  0.00     0.006 C 
HETATM   10  C9  UNK   900      35.533 -38.550 -57.716  1.00  0.00    -0.011 C 
HETATM   11  C10 UNK   900      37.202 -37.173 -57.153  1.00  0.00     0.158 C 
HETATM   12  C11 UNK   900      36.304 -36.576 -54.961  1.00  0.00     0.025 C 
HETATM   13  C13 UNK   900      35.696 -35.382 -59.483  1.00  0.00     0.018 C 
HETATM   14  C14 UNK   900      36.858 -38.438 -57.816  1.00  0.00     0.048 C 
HETATM   15  C15 UNK   900      33.962 -39.321 -55.360  1.00  0.00     0.011 C 
ENDROOT
BRANCH   5  16
HETATM   16  C12 UNK   900      33.962 -33.992 -58.402  1.00  0.00     0.173 C 
BRANCH  16  17
HETATM   17  O1  UNK   900      34.446 -33.292 -59.529  1.00  0.00    -0.400 OA
HETATM   18  H22 UNK   900      33.732 -32.707 -59.834  1.00  0.00     0.209 HD
ENDBRANCH  16  17
ENDBRANCH   5  16
TORSDOF 2
ENDMDL
MODEL 7
REMARK VINA RESULT:      -5.0     13.423     15.540
REMARK  2 active torsions:
REMARK  status: ('A' for Active; 'I' for Inactive)
REMARK    1  A    between atoms: O1_1  and  C12_14 
REMARK    2  A    between atoms: C4_6  and  C12_14 
ROOT
HETATM    1  O2  UNK   900      38.592 -36.762 -58.923  1.00  0.00    -0.292 OA
HETATM    2  C1  UNK   900      36.284 -34.085 -58.332  1.00  0.00    -0.000 C 
HETATM    3  C2  UNK   900      35.024 -34.590 -57.549  1.00  0.00     0.010 C 
HETATM    4  C3  UNK   900      36.705 -35.251 -59.270  1.00  0.00     0.033 C 
HETATM    5  C4  UNK   900      34.857 -36.098 -57.851  1.00  0.00    -0.017 C 
HETATM    6  C5  UNK   900      35.833 -32.763 -59.016  1.00  0.00    -0.005 C 
HETATM    7  C6  UNK   900      35.562 -36.278 -59.211  1.00  0.00     0.030 C 
HETATM    8  C7  UNK   900      33.893 -33.657 -57.998  1.00  0.00     0.007 C 
HETATM    9  C8  UNK   900      34.603 -32.331 -58.216  1.00  0.00     0.006 C 
HETATM   10  C9  UNK   900      37.464 -33.945 -57.399  1.00  0.00    -0.011 C 
HETATM   11  C10 UNK   900      37.982 -35.749 -58.613  1.00  0.00     0.158 C 
HETATM   12  C11 UNK   900      37.068 -34.905 -60.717  1.00  0.00     0.025 C 
HETATM   13  C13 UNK   900      35.530 -36.951 -56.754  1.00  0.00     0.018 C 
HETATM   14  C14 UNK   900      38.433 -34.849 -57.545  1.00  0.00     0.048 C 
HETATM   15  C15 UNK   900      36.866 -31.648 -59.126  1.00  0.00     0.011 C 
ENDROOT
BRANCH   5  16
HETATM   16  C12 UNK   900      33.394 -36.565 -57.933  1.00  0.00     0.173 C 
BRANCH  16  17
HETATM   17  O1  UNK   900      33.183 -37.127 -59.211  1.00  0.00    -0.400 OA
HETATM   18  H22 UNK   900      33.999 -37.593 -59.460  1.00  0.00     0.209 HD
ENDBRANCH  16  17
ENDBRANCH   5  16
TORSDOF 2
ENDMDL
