MODEL 1
REMARK VINA RESULT:      -5.9      0.000      0.000
REMARK  5 active torsions:
REMARK  status: ('A' for Active; 'I' for Inactive)
REMARK    1  A    between atoms: O2_3  and  C1_6 
REMARK    2  A    between atoms: O3_4  and  C3_8 
REMARK    3  A    between atoms: C1_6  and  C2_7 
REMARK    4  A    between atoms: C1_6  and  C3_8 
REMARK    5  A    between atoms: C3_8  and  C4_9 
ROOT
HETATM    1  C1  UNK   900      22.188 -34.042 -68.212  1.00  0.00     0.181 C 
ENDROOT
BRANCH   1   2
HETATM    2  O2  UNK   900      21.326 -32.983 -67.786  1.00  0.00    -0.390 OA
HETATM    3  H9  UNK   900      20.884 -32.624 -68.573  1.00  0.00     0.210 HD
ENDBRANCH   1   2
BRANCH   1   4
HETATM    4  C2  UNK   900      21.822 -35.279 -67.401  1.00  0.00     0.187 A 
HETATM    5  O1  UNK   900      22.894 -35.592 -66.501  1.00  0.00    -0.306 OA
HETATM    6  C7  UNK   900      23.359 -36.849 -66.763  1.00  0.00     0.289 A 
HETATM    7  O4  UNK   900      24.271 -37.404 -66.174  1.00  0.00    -0.260 OA
HETATM    8  C6  UNK   900      22.580 -37.424 -67.867  1.00  0.00     0.012 A 
HETATM    9  C5  UNK   900      21.694 -36.498 -68.226  1.00  0.00     0.021 A 
HETATM   10  C9  UNK   900      22.806 -38.780 -68.412  1.00  0.00     0.054 C 
ENDBRANCH   1   4
BRANCH   1  11
HETATM   11  C3  UNK   900      23.651 -33.588 -68.043  1.00  0.00     0.167 C 
BRANCH  11  12
HETATM   12  O3  UNK   900      23.670 -32.165 -67.874  1.00  0.00    -0.391 OA
HETATM   13  H10 UNK   900      24.321 -31.802 -68.499  1.00  0.00     0.210 HD
ENDBRANCH  11  12
BRANCH  11  14
HETATM   14  C4  UNK   900      24.573 -33.936 -69.225  1.00  0.00     0.109 C 
HETATM   15 CL1  UNK   900      23.565 -34.475 -70.617  1.00  0.00    -0.123 Cl
HETATM   16  C8  UNK   900      25.583 -35.035 -68.918  1.00  0.00     0.029 C 
ENDBRANCH  11  14
ENDBRANCH   1  11
TORSDOF 5
ENDMDL
MODEL 2
REMARK VINA RESULT:      -5.9      4.132      5.281
REMARK  5 active torsions:
REMARK  status: ('A' for Active; 'I' for Inactive)
REMARK    1  A    between atoms: O2_3  and  C1_6 
REMARK    2  A    between atoms: O3_4  and  C3_8 
REMARK    3  A    between atoms: C1_6  and  C2_7 
REMARK    4  A    between atoms: C1_6  and  C3_8 
REMARK    5  A    between atoms: C3_8  and  C4_9 
ROOT
HETATM    1  C1  UNK   900      24.099 -38.825 -71.531  1.00  0.00     0.181 C 
ENDROOT
BRANCH   1   2
HETATM    2  O2  UNK   900      24.697 -38.779 -72.829  1.00  0.00    -0.390 OA
HETATM    3  H9  UNK   900      23.985 -38.836 -73.488  1.00  0.00     0.210 HD
ENDBRANCH   1   2
BRANCH   1   4
HETATM    4  C2  UNK   900      23.311 -40.125 -71.441  1.00  0.00     0.187 A 
HETATM    5  O1  UNK   900      21.928 -39.827 -71.203  1.00  0.00    -0.306 OA
HETATM    6  C7  UNK   900      21.530 -40.406 -70.032  1.00  0.00     0.289 A 
HETATM    7  O4  UNK   900      20.412 -40.334 -69.549  1.00  0.00    -0.260 OA
HETATM    8  C6  UNK   900      22.666 -41.133 -69.450  1.00  0.00     0.012 A 
HETATM    9  C5  UNK   900      23.691 -40.957 -70.279  1.00  0.00     0.021 A 
HETATM   10  C9  UNK   900      22.593 -41.887 -68.180  1.00  0.00     0.054 C 
ENDBRANCH   1   4
BRANCH   1  11
HETATM   11  C3  UNK   900      23.248 -37.556 -71.332  1.00  0.00     0.167 C 
BRANCH  11  12
HETATM   12  O3  UNK   900      23.392 -36.724 -72.490  1.00  0.00    -0.391 OA
HETATM   13  H10 UNK   900      23.844 -37.246 -73.174  1.00  0.00     0.210 HD
ENDBRANCH  11  12
BRANCH  11  14
HETATM   14  C4  UNK   900      23.621 -36.717 -70.097  1.00  0.00     0.109 C 
HETATM   15 CL1  UNK   900      23.842 -35.001 -70.599  1.00  0.00    -0.123 Cl
HETATM   16  C8  UNK   900      24.896 -37.175 -69.399  1.00  0.00     0.029 C 
ENDBRANCH  11  14
ENDBRANCH   1  11
TORSDOF 5
ENDMDL
MODEL 3
REMARK VINA RESULT:      -5.6      4.177      5.339
REMARK  5 active torsions:
REMARK  status: ('A' for Active; 'I' for Inactive)
REMARK    1  A    between atoms: O2_3  and  C1_6 
REMARK    2  A    between atoms: O3_4  and  C3_8 
REMARK    3  A    between atoms: C1_6  and  C2_7 
REMARK    4  A    between atoms: C1_6  and  C3_8 
REMARK    5  A    between atoms: C3_8  and  C4_9 
ROOT
HETATM    1  C1  UNK   900      20.979 -40.276 -70.198  1.00  0.00     0.181 C 
ENDROOT
BRANCH   1   2
HETATM    2  O2  UNK   900      19.763 -40.600 -70.876  1.00  0.00    -0.390 OA
HETATM    3  H9  UNK   900      19.896 -40.434 -71.824  1.00  0.00     0.210 HD
ENDBRANCH   1   2
BRANCH   1   4
HETATM    4  C2  UNK   900      20.799 -40.660 -68.735  1.00  0.00     0.187 A 
HETATM    5  O1  UNK   900      20.150 -39.586 -68.038  1.00  0.00    -0.306 OA
HETATM    6  C7  UNK   900      20.952 -39.148 -67.024  1.00  0.00     0.289 A 
HETATM    7  O4  UNK   900      20.688 -38.242 -66.252  1.00  0.00    -0.260 OA
HETATM    8  C6  UNK   900      22.185 -39.947 -67.012  1.00  0.00     0.012 A 
HETATM    9  C5  UNK   900      22.079 -40.818 -68.013  1.00  0.00     0.021 A 
HETATM   10  C9  UNK   900      23.280 -39.752 -66.038  1.00  0.00     0.054 C 
ENDBRANCH   1   4
BRANCH   1  11
HETATM   11  C3  UNK   900      21.290 -38.784 -70.425  1.00  0.00     0.167 C 
BRANCH  11  12
HETATM   12  O3  UNK   900      20.421 -38.288 -71.450  1.00  0.00    -0.391 OA
HETATM   13  H10 UNK   900      19.561 -38.093 -71.040  1.00  0.00     0.210 HD
ENDBRANCH  11  12
BRANCH  11  14
HETATM   14  C4  UNK   900      22.739 -38.485 -70.848  1.00  0.00     0.109 C 
HETATM   15 CL1  UNK   900      23.540 -40.027 -71.326  1.00  0.00    -0.123 Cl
HETATM   16  C8  UNK   900      23.580 -37.832 -69.758  1.00  0.00     0.029 C 
ENDBRANCH  11  14
ENDBRANCH   1  11
TORSDOF 5
ENDMDL
MODEL 4
REMARK VINA RESULT:      -5.5      2.816      3.699
REMARK  5 active torsions:
REMARK  status: ('A' for Active; 'I' for Inactive)
REMARK    1  A    between atoms: O2_3  and  C1_6 
REMARK    2  A    between atoms: O3_4  and  C3_8 
REMARK    3  A    between atoms: C1_6  and  C2_7 
REMARK    4  A    between atoms: C1_6  and  C3_8 
REMARK    5  A    between atoms: C3_8  and  C4_9 
ROOT
HETATM    1  C1  UNK   900      21.298 -37.745 -69.550  1.00  0.00     0.181 C 
ENDROOT
BRANCH   1   2
HETATM    2  O2  UNK   900      20.376 -37.626 -70.636  1.00  0.00    -0.390 OA
HETATM    3  H9  UNK   900      20.535 -38.365 -71.246  1.00  0.00     0.210 HD
ENDBRANCH   1   2
BRANCH   1   4
HETATM    4  C2  UNK   900      20.762 -38.824 -68.617  1.00  0.00     0.187 A 
HETATM    5  O1  UNK   900      20.078 -38.205 -67.518  1.00  0.00    -0.306 OA
HETATM    6  C7  UNK   900      20.671 -38.571 -66.345  1.00  0.00     0.289 A 
HETATM    7  O4  UNK   900      20.327 -38.207 -65.233  1.00  0.00    -0.260 OA
HETATM    8  C6  UNK   900      21.791 -39.475 -66.638  1.00  0.00     0.012 A 
HETATM    9  C5  UNK   900      21.829 -39.609 -67.962  1.00  0.00     0.021 A 
HETATM   10  C9  UNK   900      22.655 -40.075 -65.600  1.00  0.00     0.054 C 
ENDBRANCH   1   4
BRANCH   1  11
HETATM   11  C3  UNK   900      21.465 -36.364 -68.887  1.00  0.00     0.167 C 
BRANCH  11  12
HETATM   12  O3  UNK   900      20.946 -35.367 -69.776  1.00  0.00    -0.391 OA
HETATM   13  H10 UNK   900      20.086 -35.078 -69.426  1.00  0.00     0.210 HD
ENDBRANCH  11  12
BRANCH  11  14
HETATM   14  C4  UNK   900      22.916 -35.985 -68.546  1.00  0.00     0.109 C 
HETATM   15 CL1  UNK   900      24.033 -37.113 -69.398  1.00  0.00    -0.123 Cl
HETATM   16  C8  UNK   900      23.236 -36.036 -67.057  1.00  0.00     0.029 C 
ENDBRANCH  11  14
ENDBRANCH   1  11
TORSDOF 5
ENDMDL
MODEL 5
REMARK VINA RESULT:      -5.3      3.847      5.020
REMARK  5 active torsions:
REMARK  status: ('A' for Active; 'I' for Inactive)
REMARK    1  A    between atoms: O2_3  and  C1_6 
REMARK    2  A    between atoms: O3_4  and  C3_8 
REMARK    3  A    between atoms: C1_6  and  C2_7 
REMARK    4  A    between atoms: C1_6  and  C3_8 
REMARK    5  A    between atoms: C3_8  and  C4_9 
ROOT
HETATM    1  C1  UNK   900      21.663 -37.359 -69.167  1.00  0.00     0.181 C 
ENDROOT
BRANCH   1   2
HETATM    2  O2  UNK   900      21.404 -36.235 -70.011  1.00  0.00    -0.390 OA
HETATM    3  H9  UNK   900      22.256 -35.819 -70.224  1.00  0.00     0.210 HD
ENDBRANCH   1   2
BRANCH   1   4
HETATM    4  C2  UNK   900      21.630 -38.603 -70.046  1.00  0.00     0.187 A 
HETATM    5  O1  UNK   900      20.355 -39.247 -69.911  1.00  0.00    -0.306 OA
HETATM    6  C7  UNK   900      20.532 -40.520 -69.449  1.00  0.00     0.289 A 
HETATM    7  O4  UNK   900      19.642 -41.322 -69.224  1.00  0.00    -0.260 OA
HETATM    8  C6  UNK   900      21.969 -40.766 -69.269  1.00  0.00     0.012 A 
HETATM    9  C5  UNK   900      22.590 -39.643 -69.619  1.00  0.00     0.021 A 
HETATM   10  C9  UNK   900      22.528 -42.048 -68.788  1.00  0.00     0.054 C 
ENDBRANCH   1   4
BRANCH   1  11
HETATM   11  C3  UNK   900      20.632 -37.368 -68.023  1.00  0.00     0.167 C 
BRANCH  11  12
HETATM   12  O3  UNK   900      20.133 -36.036 -67.848  1.00  0.00    -0.391 OA
HETATM   13  H10 UNK   900      19.860 -35.942 -66.920  1.00  0.00     0.210 HD
ENDBRANCH  11  12
BRANCH  11  14
HETATM   14  C4  UNK   900      21.177 -37.850 -66.667  1.00  0.00     0.109 C 
HETATM   15 CL1  UNK   900      19.798 -38.377 -65.634  1.00  0.00    -0.123 Cl
HETATM   16  C8  UNK   900      21.963 -36.791 -65.904  1.00  0.00     0.029 C 
ENDBRANCH  11  14
ENDBRANCH   1  11
TORSDOF 5
ENDMDL
MODEL 6
REMARK VINA RESULT:      -5.2      2.139      4.139
REMARK  5 active torsions:
REMARK  status: ('A' for Active; 'I' for Inactive)
REMARK    1  A    between atoms: O2_3  and  C1_6 
REMARK    2  A    between atoms: O3_4  and  C3_8 
REMARK    3  A    between atoms: C1_6  and  C2_7 
REMARK    4  A    between atoms: C1_6  and  C3_8 
REMARK    5  A    between atoms: C3_8  and  C4_9 
ROOT
HETATM    1  C1  UNK   900      21.602 -36.679 -67.682  1.00  0.00     0.181 C 
ENDROOT
BRANCH   1   2
HETATM    2  O2  UNK   900      20.256 -36.199 -67.638  1.00  0.00    -0.390 OA
HETATM    3  H9  UNK   900      19.760 -36.756 -67.016  1.00  0.00     0.210 HD
ENDBRANCH   1   2
BRANCH   1   4
HETATM    4  C2  UNK   900      22.457 -35.703 -66.884  1.00  0.00     0.187 A 
HETATM    5  O1  UNK   900      21.794 -34.432 -66.819  1.00  0.00    -0.306 OA
HETATM    6  C7  UNK   900      22.588 -33.472 -67.377  1.00  0.00     0.289 A 
HETATM    7  O4  UNK   900      22.306 -32.290 -67.480  1.00  0.00    -0.260 OA
HETATM    8  C6  UNK   900      23.839 -34.094 -67.831  1.00  0.00     0.012 A 
HETATM    9  C5  UNK   900      23.745 -35.388 -67.539  1.00  0.00     0.021 A 
HETATM   10  C9  UNK   900      24.939 -33.347 -68.479  1.00  0.00     0.054 C 
ENDBRANCH   1   4
BRANCH   1  11
HETATM   11  C3  UNK   900      22.026 -36.830 -69.155  1.00  0.00     0.167 C 
BRANCH  11  12
HETATM   12  O3  UNK   900      21.145 -36.044 -69.967  1.00  0.00    -0.391 OA
HETATM   13  H10 UNK   900      20.619 -35.481 -69.373  1.00  0.00     0.210 HD
ENDBRANCH  11  12
BRANCH  11  14
HETATM   14  C4  UNK   900      21.999 -38.274 -69.688  1.00  0.00     0.109 C 
HETATM   15 CL1  UNK   900      23.618 -38.680 -70.365  1.00  0.00    -0.123 Cl
HETATM   16  C8  UNK   900      20.957 -38.512 -70.775  1.00  0.00     0.029 C 
ENDBRANCH  11  14
ENDBRANCH   1  11
TORSDOF 5
ENDMDL
MODEL 7
REMARK VINA RESULT:      -5.1      3.159      4.753
REMARK  5 active torsions:
REMARK  status: ('A' for Active; 'I' for Inactive)
REMARK    1  A    between atoms: O2_3  and  C1_6 
REMARK    2  A    between atoms: O3_4  and  C3_8 
REMARK    3  A    between atoms: C1_6  and  C2_7 
REMARK    4  A    between atoms: C1_6  and  C3_8 
REMARK    5  A    between atoms: C3_8  and  C4_9 
ROOT
HETATM    1  C1  UNK   900      22.842 -36.848 -69.796  1.00  0.00     0.181 C 
ENDROOT
BRANCH   1   2
HETATM    2  O2  UNK   900      21.819 -35.952 -70.240  1.00  0.00    -0.390 OA
HETATM    3  H9  UNK   900      22.250 -35.204 -70.686  1.00  0.00     0.210 HD
ENDBRANCH   1   2
BRANCH   1   4
HETATM    4  C2  UNK   900      24.181 -36.242 -70.198  1.00  0.00     0.187 A 
HETATM    5  O1  UNK   900      25.240 -36.948 -69.537  1.00  0.00    -0.306 OA
HETATM    6  C7  UNK   900      25.955 -36.082 -68.762  1.00  0.00     0.289 A 
HETATM    7  O4  UNK   900      26.915 -36.376 -68.070  1.00  0.00    -0.260 OA
HETATM    8  C6  UNK   900      25.381 -34.736 -68.898  1.00  0.00     0.012 A 
HETATM    9  C5  UNK   900      24.351 -34.849 -69.733  1.00  0.00     0.021 A 
HETATM   10  C9  UNK   900      25.910 -33.544 -68.202  1.00  0.00     0.054 C 
ENDBRANCH   1   4
BRANCH   1  11
HETATM   11  C3  UNK   900      22.575 -38.241 -70.398  1.00  0.00     0.167 C 
BRANCH  11  12
HETATM   12  O3  UNK   900      23.343 -39.207 -69.669  1.00  0.00    -0.391 OA
HETATM   13  H10 UNK   900      23.721 -38.760 -68.893  1.00  0.00     0.210 HD
ENDBRANCH  11  12
BRANCH  11  14
HETATM   14  C4  UNK   900      22.933 -38.378 -71.888  1.00  0.00     0.109 C 
HETATM   15 CL1  UNK   900      21.500 -39.009 -72.780  1.00  0.00    -0.123 Cl
HETATM   16  C8  UNK   900      24.108 -39.311 -72.159  1.00  0.00     0.029 C 
ENDBRANCH  11  14
ENDBRANCH   1  11
TORSDOF 5
ENDMDL
MODEL 8
REMARK VINA RESULT:      -4.9     30.868     31.925
REMARK  5 active torsions:
REMARK  status: ('A' for Active; 'I' for Inactive)
REMARK    1  A    between atoms: O2_3  and  C1_6 
REMARK    2  A    between atoms: O3_4  and  C3_8 
REMARK    3  A    between atoms: C1_6  and  C2_7 
REMARK    4  A    between atoms: C1_6  and  C3_8 
REMARK    5  A    between atoms: C3_8  and  C4_9 
ROOT
HETATM    1  C1  UNK   900      10.800 -44.715 -95.538  1.00  0.00     0.181 C 
ENDROOT
BRANCH   1   2
HETATM    2  O2  UNK   900      11.439 -44.774 -94.260  1.00  0.00    -0.390 OA
HETATM    3  H9  UNK   900      10.749 -44.718 -93.578  1.00  0.00     0.210 HD
ENDBRANCH   1   2
BRANCH   1   4
HETATM    4  C2  UNK   900       9.902 -43.484 -95.540  1.00  0.00     0.187 A 
HETATM    5  O1  UNK   900      10.111 -42.742 -94.330  1.00  0.00    -0.306 OA
HETATM    6  C7  UNK   900       8.935 -42.646 -93.643  1.00  0.00     0.289 A 
HETATM    7  O4  UNK   900       8.783 -42.082 -92.573  1.00  0.00    -0.260 OA
HETATM    8  C6  UNK   900       7.882 -43.333 -94.403  1.00  0.00     0.012 A 
HETATM    9  C5  UNK   900       8.462 -43.814 -95.500  1.00  0.00     0.021 A 
HETATM   10  C9  UNK   900       6.475 -43.422 -93.959  1.00  0.00     0.054 C 
ENDBRANCH   1   4
BRANCH   1  11
HETATM   11  C3  UNK   900      10.052 -46.040 -95.779  1.00  0.00     0.167 C 
BRANCH  11  12
HETATM   12  O3  UNK   900      10.085 -46.809 -94.571  1.00  0.00    -0.391 OA
HETATM   13  H10 UNK   900       9.197 -47.181 -94.433  1.00  0.00     0.210 HD
ENDBRANCH  11  12
BRANCH  11  14
HETATM   14  C4  UNK   900      10.632 -46.910 -96.909  1.00  0.00     0.109 C 
HETATM   15 CL1  UNK   900      12.401 -46.593 -97.044  1.00  0.00    -0.123 Cl
HETATM   16  C8  UNK   900      10.000 -46.657 -98.272  1.00  0.00     0.029 C 
ENDBRANCH  11  14
ENDBRANCH   1  11
TORSDOF 5
ENDMDL
MODEL 9
REMARK VINA RESULT:      -4.9      2.522      4.778
REMARK  5 active torsions:
REMARK  status: ('A' for Active; 'I' for Inactive)
REMARK    1  A    between atoms: O2_3  and  C1_6 
REMARK    2  A    between atoms: O3_4  and  C3_8 
REMARK    3  A    between atoms: C1_6  and  C2_7 
REMARK    4  A    between atoms: C1_6  and  C3_8 
REMARK    5  A    between atoms: C3_8  and  C4_9 
ROOT
HETATM    1  C1  UNK   900      22.214 -36.712 -67.547  1.00  0.00     0.181 C 
ENDROOT
BRANCH   1   2
HETATM    2  O2  UNK   900      22.309 -36.259 -68.900  1.00  0.00    -0.390 OA
HETATM    3  H9  UNK   900      21.549 -35.679 -69.074  1.00  0.00     0.210 HD
ENDBRANCH   1   2
BRANCH   1   4
HETATM    4  C2  UNK   900      23.090 -35.798 -66.700  1.00  0.00     0.187 A 
HETATM    5  O1  UNK   900      22.571 -34.462 -66.751  1.00  0.00    -0.306 OA
HETATM    6  C7  UNK   900      23.519 -33.621 -67.257  1.00  0.00     0.289 A 
HETATM    7  O4  UNK   900      23.384 -32.421 -67.431  1.00  0.00    -0.260 OA
HETATM    8  C6  UNK   900      24.731 -34.395 -67.556  1.00  0.00     0.012 A 
HETATM    9  C5  UNK   900      24.464 -35.656 -67.228  1.00  0.00     0.021 A 
HETATM   10  C9  UNK   900      25.967 -33.803 -68.112  1.00  0.00     0.054 C 
ENDBRANCH   1   4
BRANCH   1  11
HETATM   11  C3  UNK   900      22.617 -38.199 -67.493  1.00  0.00     0.167 C 
BRANCH  11  12
HETATM   12  O3  UNK   900      22.671 -38.705 -68.832  1.00  0.00    -0.391 OA
HETATM   13  H10 UNK   900      23.443 -39.293 -68.895  1.00  0.00     0.210 HD
ENDBRANCH  11  12
BRANCH  11  14
HETATM   14  C4  UNK   900      21.662 -39.096 -66.686  1.00  0.00     0.109 C 
HETATM   15 CL1  UNK   900      20.420 -38.062 -65.888  1.00  0.00    -0.123 Cl
HETATM   16  C8  UNK   900      22.352 -39.924 -65.609  1.00  0.00     0.029 C 
ENDBRANCH  11  14
ENDBRANCH   1  11
TORSDOF 5
ENDMDL
