MODEL 1
REMARK VINA RESULT:      -8.5      0.000      0.000
REMARK  3 active torsions:
REMARK  status: ('A' for Active; 'I' for Inactive)
REMARK    1  A    between atoms: O2_2  and  C15_21 
REMARK    2  A    between atoms: C1_7  and  C6_12 
REMARK    3  A    between atoms: C5_11  and  C15_21 
ROOT
HETATM    1  O1  UNK   900      31.069 -49.474 -64.114  1.00  0.00    -0.272 OA
HETATM    2  N1  UNK   900      32.676 -46.340 -61.354  1.00  0.00    -0.357 N 
HETATM    3  N2  UNK   900      30.286 -47.478 -64.865  1.00  0.00    -0.345 N 
HETATM    4  C1  UNK   900      30.840 -47.714 -62.448  1.00  0.00     0.163 C 
HETATM    5  C2  UNK   900      31.812 -46.552 -62.406  1.00  0.00     0.035 A 
HETATM    6  C3  UNK   900      31.979 -45.486 -63.285  1.00  0.00    -0.019 A 
HETATM    7  C4  UNK   900      31.234 -45.228 -64.560  1.00  0.00     0.077 C 
HETATM    8  C5  UNK   900      29.970 -46.066 -64.724  1.00  0.00     0.186 C 
HETATM    9  C7  UNK   900      33.024 -44.655 -62.760  1.00  0.00    -0.001 A 
HETATM   10  C8  UNK   900      30.765 -48.304 -63.866  1.00  0.00     0.233 C 
HETATM   11  C9  UNK   900      33.436 -45.216 -61.555  1.00  0.00     0.043 A 
HETATM   12  C13 UNK   900      33.650 -43.468 -63.200  1.00  0.00     0.014 A 
HETATM   13  C14 UNK   900      34.445 -44.656 -60.763  1.00  0.00     0.030 A 
HETATM   14  C17 UNK   900      34.662 -42.898 -62.421  1.00  0.00     0.001 A 
HETATM   15  C18 UNK   900      35.053 -43.484 -61.220  1.00  0.00     0.002 A 
HETATM   16  H5  UNK   900      32.754 -46.933 -60.540  1.00  0.00     0.166 HD
HETATM   17  H6  UNK   900      30.219 -47.892 -65.791  1.00  0.00     0.163 HD
ENDROOT
BRANCH   4  18
HETATM   18  C6  UNK   900      31.092 -48.795 -61.401  1.00  0.00    -0.011 A 
HETATM   19  C10 UNK   900      32.315 -49.485 -61.173  1.00  0.00    -0.001 A 
HETATM   20  C12 UNK   900      32.091 -50.381 -60.125  1.00  0.00     0.043 A 
HETATM   21  C16 UNK   900      33.594 -49.434 -61.759  1.00  0.00     0.014 A 
HETATM   22  N3  UNK   900      30.778 -50.233 -59.739  1.00  0.00    -0.365 N 
HETATM   23  C19 UNK   900      33.087 -51.231 -59.633  1.00  0.00     0.030 A 
HETATM   24  C11 UNK   900      30.165 -49.276 -60.504  1.00  0.00     0.097 A 
HETATM   25  H10 UNK   900      30.330 -50.754 -58.998  1.00  0.00     0.165 HD
HETATM   26  C21 UNK   900      34.349 -51.162 -60.229  1.00  0.00     0.002 A 
HETATM   27  C20 UNK   900      34.601 -50.278 -61.276  1.00  0.00     0.001 A 
ENDBRANCH   4  18
BRANCH   8  28
HETATM   28  C15 UNK   900      29.259 -45.691 -65.988  1.00  0.00     0.163 C 
HETATM   29  O3  UNK   900      29.237 -46.365 -67.006  1.00  0.00    -0.648 OA
BRANCH  28  30
HETATM   30  O2  UNK   900      28.639 -44.494 -65.850  1.00  0.00    -0.775 OA
HETATM   31  H17 UNK   900      28.365 -44.327 -64.923  1.00  0.00     0.167 HD
ENDBRANCH  28  30
ENDBRANCH   8  28
TORSDOF 3
ENDMDL
MODEL 2
REMARK VINA RESULT:      -7.4      9.184     12.297
REMARK  3 active torsions:
REMARK  status: ('A' for Active; 'I' for Inactive)
REMARK    1  A    between atoms: O2_2  and  C15_21 
REMARK    2  A    between atoms: C1_7  and  C6_12 
REMARK    3  A    between atoms: C5_11  and  C15_21 
ROOT
HETATM    1  O1  UNK   900      37.281 -37.888 -54.884  1.00  0.00    -0.272 OA
HETATM    2  N1  UNK   900      35.893 -40.469 -58.266  1.00  0.00    -0.357 N 
HETATM    3  N2  UNK   900      38.248 -39.923 -54.592  1.00  0.00    -0.345 N 
HETATM    4  C1  UNK   900      36.088 -39.790 -55.825  1.00  0.00     0.163 C 
HETATM    5  C2  UNK   900      36.590 -40.481 -57.077  1.00  0.00     0.035 A 
HETATM    6  C3  UNK   900      37.710 -41.282 -57.274  1.00  0.00    -0.019 A 
HETATM    7  C4  UNK   900      38.759 -41.650 -56.269  1.00  0.00     0.077 C 
HETATM    8  C5  UNK   900      38.370 -41.353 -54.824  1.00  0.00     0.186 C 
HETATM    9  C7  UNK   900      37.703 -41.702 -58.646  1.00  0.00    -0.001 A 
HETATM   10  C8  UNK   900      37.248 -39.105 -55.084  1.00  0.00     0.233 C 
HETATM   11  C9  UNK   900      36.557 -41.178 -59.235  1.00  0.00     0.043 A 
HETATM   12  C13 UNK   900      38.567 -42.490 -59.437  1.00  0.00     0.014 A 
HETATM   13  C14 UNK   900      36.224 -41.396 -60.577  1.00  0.00     0.030 A 
HETATM   14  C17 UNK   900      38.251 -42.716 -60.782  1.00  0.00     0.001 A 
HETATM   15  C18 UNK   900      37.096 -42.176 -61.342  1.00  0.00     0.002 A 
HETATM   16  H5  UNK   900      35.014 -39.997 -58.417  1.00  0.00     0.166 HD
HETATM   17  H6  UNK   900      38.994 -39.456 -54.083  1.00  0.00     0.163 HD
ENDROOT
BRANCH   4  18
HETATM   18  C6  UNK   900      34.920 -38.833 -56.049  1.00  0.00    -0.011 A 
HETATM   19  C10 UNK   900      34.897 -37.716 -56.930  1.00  0.00    -0.001 A 
HETATM   20  C12 UNK   900      33.635 -37.129 -56.815  1.00  0.00     0.043 A 
HETATM   21  C16 UNK   900      35.831 -37.146 -57.816  1.00  0.00     0.014 A 
HETATM   22  N3  UNK   900      32.926 -37.870 -55.895  1.00  0.00    -0.365 N 
HETATM   23  C19 UNK   900      33.259 -35.997 -57.546  1.00  0.00     0.030 A 
HETATM   24  C11 UNK   900      33.694 -38.902 -55.427  1.00  0.00     0.097 A 
HETATM   25  H10 UNK   900      31.976 -37.680 -55.609  1.00  0.00     0.165 HD
HETATM   26  C21 UNK   900      34.202 -35.449 -58.419  1.00  0.00     0.002 A 
HETATM   27  C20 UNK   900      35.469 -36.013 -58.554  1.00  0.00     0.001 A 
ENDBRANCH   4  18
BRANCH   8  28
HETATM   28  C15 UNK   900      39.446 -41.815 -53.891  1.00  0.00     0.163 C 
HETATM   29  O3  UNK   900      39.725 -41.287 -52.825  1.00  0.00    -0.648 OA
BRANCH  28  30
HETATM   30  O2  UNK   900      40.076 -42.906 -54.391  1.00  0.00    -0.775 OA
HETATM   31  H17 UNK   900      41.024 -42.730 -54.573  1.00  0.00     0.167 HD
ENDBRANCH  28  30
ENDBRANCH   8  28
TORSDOF 3
ENDMDL
MODEL 3
REMARK VINA RESULT:      -7.1     30.418     33.948
REMARK  3 active torsions:
REMARK  status: ('A' for Active; 'I' for Inactive)
REMARK    1  A    between atoms: O2_2  and  C15_21 
REMARK    2  A    between atoms: C1_7  and  C6_12 
REMARK    3  A    between atoms: C5_11  and  C15_21 
ROOT
HETATM    1  O1  UNK   900      12.256 -29.527 -78.406  1.00  0.00    -0.272 OA
HETATM    2  N1  UNK   900       7.933 -28.462 -78.849  1.00  0.00    -0.357 N 
HETATM    3  N2  UNK   900      11.501 -28.988 -76.333  1.00  0.00    -0.345 N 
HETATM    4  C1  UNK   900      10.372 -27.989 -78.315  1.00  0.00     0.163 C 
HETATM    5  C2  UNK   900       8.983 -28.481 -77.957  1.00  0.00     0.035 A 
HETATM    6  C3  UNK   900       8.474 -28.933 -76.744  1.00  0.00    -0.019 A 
HETATM    7  C4  UNK   900       9.207 -29.086 -75.446  1.00  0.00     0.077 C 
HETATM    8  C5  UNK   900      10.560 -28.380 -75.406  1.00  0.00     0.186 C 
HETATM    9  C7  UNK   900       7.091 -29.252 -76.950  1.00  0.00    -0.001 A 
HETATM   10  C8  UNK   900      11.444 -28.911 -77.711  1.00  0.00     0.233 C 
HETATM   11  C9  UNK   900       6.786 -28.947 -78.273  1.00  0.00     0.043 A 
HETATM   12  C13 UNK   900       6.068 -29.766 -76.124  1.00  0.00     0.014 A 
HETATM   13  C14 UNK   900       5.511 -29.129 -78.820  1.00  0.00     0.030 A 
HETATM   14  C17 UNK   900       4.788 -29.958 -76.656  1.00  0.00     0.001 A 
HETATM   15  C18 UNK   900       4.515 -29.642 -77.985  1.00  0.00     0.002 A 
HETATM   16  H5  UNK   900       7.991 -28.144 -79.805  1.00  0.00     0.166 HD
HETATM   17  H6  UNK   900      12.231 -29.582 -75.950  1.00  0.00     0.163 HD
ENDROOT
BRANCH   4  18
HETATM   18  C6  UNK   900      10.603 -27.758 -79.807  1.00  0.00    -0.011 A 
HETATM   19  C10 UNK   900      11.271 -26.651 -80.399  1.00  0.00    -0.001 A 
HETATM   20  C12 UNK   900      11.250 -26.851 -81.781  1.00  0.00     0.043 A 
HETATM   21  C16 UNK   900      11.893 -25.494 -79.891  1.00  0.00     0.014 A 
HETATM   22  N3  UNK   900      10.591 -28.038 -82.008  1.00  0.00    -0.365 N 
HETATM   23  C19 UNK   900      11.823 -25.948 -82.684  1.00  0.00     0.030 A 
HETATM   24  C11 UNK   900      10.196 -28.594 -80.821  1.00  0.00     0.097 A 
HETATM   25  H10 UNK   900      10.423 -28.442 -82.920  1.00  0.00     0.165 HD
HETATM   26  C21 UNK   900      12.435 -24.808 -82.157  1.00  0.00     0.002 A 
HETATM   27  C20 UNK   900      12.471 -24.582 -80.782  1.00  0.00     0.001 A 
ENDBRANCH   4  18
BRANCH   8  28
HETATM   28  C15 UNK   900      11.183 -28.529 -74.053  1.00  0.00     0.163 C 
HETATM   29  O3  UNK   900      10.572 -28.530 -72.995  1.00  0.00    -0.648 OA
BRANCH  28  30
HETATM   30  O2  UNK   900      12.528 -28.663 -74.158  1.00  0.00    -0.775 OA
HETATM   31  H17 UNK   900      12.997 -28.249 -73.402  1.00  0.00     0.167 HD
ENDBRANCH  28  30
ENDBRANCH   8  28
TORSDOF 3
ENDMDL
MODEL 4
REMARK VINA RESULT:      -6.9     27.846     29.566
REMARK  3 active torsions:
REMARK  status: ('A' for Active; 'I' for Inactive)
REMARK    1  A    between atoms: O2_2  and  C15_21 
REMARK    2  A    between atoms: C1_7  and  C6_12 
REMARK    3  A    between atoms: C5_11  and  C15_21 
ROOT
HETATM    1  O1  UNK   900      25.876 -17.862 -72.319  1.00  0.00    -0.272 OA
HETATM    2  N1  UNK   900      24.055 -21.902 -72.932  1.00  0.00    -0.357 N 
HETATM    3  N2  UNK   900      27.594 -19.308 -72.661  1.00  0.00    -0.345 N 
HETATM    4  C1  UNK   900      25.467 -20.182 -71.706  1.00  0.00     0.163 C 
HETATM    5  C2  UNK   900      25.252 -21.240 -72.770  1.00  0.00     0.035 A 
HETATM    6  C3  UNK   900      26.147 -21.799 -73.677  1.00  0.00    -0.019 A 
HETATM    7  C4  UNK   900      27.595 -21.457 -73.860  1.00  0.00     0.077 C 
HETATM    8  C5  UNK   900      28.190 -20.632 -72.723  1.00  0.00     0.186 C 
HETATM    9  C7  UNK   900      25.431 -22.778 -74.442  1.00  0.00    -0.001 A 
HETATM   10  C8  UNK   900      26.303 -19.018 -72.264  1.00  0.00     0.233 C 
HETATM   11  C9  UNK   900      24.129 -22.817 -73.952  1.00  0.00     0.043 A 
HETATM   12  C13 UNK   900      25.777 -23.642 -75.504  1.00  0.00     0.014 A 
HETATM   13  C14 UNK   900      23.149 -23.674 -74.466  1.00  0.00     0.030 A 
HETATM   14  C17 UNK   900      24.808 -24.502 -76.032  1.00  0.00     0.001 A 
HETATM   15  C18 UNK   900      23.514 -24.517 -75.519  1.00  0.00     0.002 A 
HETATM   16  H5  UNK   900      23.223 -21.738 -72.384  1.00  0.00     0.166 HD
HETATM   17  H6  UNK   900      28.141 -18.522 -73.003  1.00  0.00     0.163 HD
ENDROOT
BRANCH   4  18
HETATM   18  C6  UNK   900      24.190 -19.686 -71.033  1.00  0.00    -0.011 A 
HETATM   19  C10 UNK   900      23.995 -19.473 -69.639  1.00  0.00    -0.001 A 
HETATM   20  C12 UNK   900      22.685 -19.020 -69.473  1.00  0.00     0.043 A 
HETATM   21  C16 UNK   900      24.810 -19.623 -68.500  1.00  0.00     0.014 A 
HETATM   22  N3  UNK   900      22.114 -18.964 -70.726  1.00  0.00    -0.365 N 
HETATM   23  C19 UNK   900      22.146 -18.708 -68.220  1.00  0.00     0.030 A 
HETATM   24  C11 UNK   900      23.016 -19.364 -71.674  1.00  0.00     0.097 A 
HETATM   25  H10 UNK   900      21.166 -18.669 -70.917  1.00  0.00     0.165 HD
HETATM   26  C21 UNK   900      22.973 -18.863 -67.105  1.00  0.00     0.002 A 
HETATM   27  C20 UNK   900      24.285 -19.314 -67.240  1.00  0.00     0.001 A 
ENDBRANCH   4  18
BRANCH   8  28
HETATM   28  C15 UNK   900      29.650 -20.400 -72.959  1.00  0.00     0.163 C 
HETATM   29  O3  UNK   900      30.137 -19.358 -73.371  1.00  0.00    -0.648 OA
BRANCH  28  30
HETATM   30  O2  UNK   900      30.367 -21.509 -72.652  1.00  0.00    -0.775 OA
HETATM   31  H17 UNK   900      29.794 -22.238 -72.331  1.00  0.00     0.167 HD
ENDBRANCH  28  30
ENDBRANCH   8  28
TORSDOF 3
ENDMDL
MODEL 5
REMARK VINA RESULT:      -6.8     27.831     30.173
REMARK  3 active torsions:
REMARK  status: ('A' for Active; 'I' for Inactive)
REMARK    1  A    between atoms: O2_2  and  C15_21 
REMARK    2  A    between atoms: C1_7  and  C6_12 
REMARK    3  A    between atoms: C5_11  and  C15_21 
ROOT
HETATM    1  O1  UNK   900      25.807 -17.803 -72.494  1.00  0.00    -0.272 OA
HETATM    2  N1  UNK   900      23.942 -21.832 -73.047  1.00  0.00    -0.357 N 
HETATM    3  N2  UNK   900      27.512 -19.287 -72.717  1.00  0.00    -0.345 N 
HETATM    4  C1  UNK   900      25.333 -20.094 -71.822  1.00  0.00     0.163 C 
HETATM    5  C2  UNK   900      25.143 -21.184 -72.858  1.00  0.00     0.035 A 
HETATM    6  C3  UNK   900      26.065 -21.787 -73.709  1.00  0.00    -0.019 A 
HETATM    7  C4  UNK   900      27.524 -21.475 -73.843  1.00  0.00     0.077 C 
HETATM    8  C5  UNK   900      28.087 -20.622 -72.710  1.00  0.00     0.186 C 
HETATM    9  C7  UNK   900      25.363 -22.780 -74.469  1.00  0.00    -0.001 A 
HETATM   10  C8  UNK   900      26.211 -18.963 -72.383  1.00  0.00     0.233 C 
HETATM   11  C9  UNK   900      24.042 -22.783 -74.032  1.00  0.00     0.043 A 
HETATM   12  C13 UNK   900      25.737 -23.685 -75.486  1.00  0.00     0.014 A 
HETATM   13  C14 UNK   900      23.069 -23.641 -74.558  1.00  0.00     0.030 A 
HETATM   14  C17 UNK   900      24.776 -24.548 -76.025  1.00  0.00     0.001 A 
HETATM   15  C18 UNK   900      23.462 -24.524 -75.566  1.00  0.00     0.002 A 
HETATM   16  H5  UNK   900      23.092 -21.636 -72.540  1.00  0.00     0.166 HD
HETATM   17  H6  UNK   900      28.086 -18.522 -73.063  1.00  0.00     0.163 HD
ENDROOT
BRANCH   4  18
HETATM   18  C6  UNK   900      24.038 -19.555 -71.219  1.00  0.00    -0.011 A 
HETATM   19  C10 UNK   900      22.971 -18.930 -71.923  1.00  0.00    -0.001 A 
HETATM   20  C12 UNK   900      21.997 -18.598 -70.979  1.00  0.00     0.043 A 
HETATM   21  C16 UNK   900      22.741 -18.614 -73.276  1.00  0.00     0.014 A 
HETATM   22  N3  UNK   900      22.465 -19.010 -69.752  1.00  0.00    -0.365 N 
HETATM   23  C19 UNK   900      20.798 -17.963 -71.323  1.00  0.00     0.030 A 
HETATM   24  C11 UNK   900      23.698 -19.590 -69.886  1.00  0.00     0.097 A 
HETATM   25  H10 UNK   900      21.969 -18.901 -68.877  1.00  0.00     0.165 HD
HETATM   26  C21 UNK   900      20.591 -17.660 -72.671  1.00  0.00     0.002 A 
HETATM   27  C20 UNK   900      21.546 -17.979 -73.634  1.00  0.00     0.001 A 
ENDBRANCH   4  18
BRANCH   8  28
HETATM   28  C15 UNK   900      29.559 -20.421 -72.893  1.00  0.00     0.163 C 
HETATM   29  O3  UNK   900      30.088 -19.370 -73.222  1.00  0.00    -0.648 OA
BRANCH  28  30
HETATM   30  O2  UNK   900      30.234 -21.570 -72.645  1.00  0.00    -0.775 OA
HETATM   31  H17 UNK   900      31.093 -21.599 -73.116  1.00  0.00     0.167 HD
ENDBRANCH  28  30
ENDBRANCH   8  28
TORSDOF 3
ENDMDL
MODEL 6
REMARK VINA RESULT:      -6.8     27.581     29.662
REMARK  3 active torsions:
REMARK  status: ('A' for Active; 'I' for Inactive)
REMARK    1  A    between atoms: O2_2  and  C15_21 
REMARK    2  A    between atoms: C1_7  and  C6_12 
REMARK    3  A    between atoms: C5_11  and  C15_21 
ROOT
HETATM    1  O1  UNK   900      22.273 -20.570 -72.230  1.00  0.00    -0.272 OA
HETATM    2  N1  UNK   900      26.550 -20.938 -73.490  1.00  0.00    -0.357 N 
HETATM    3  N2  UNK   900      23.535 -20.112 -70.398  1.00  0.00    -0.345 N 
HETATM    4  C1  UNK   900      24.482 -21.589 -72.165  1.00  0.00     0.163 C 
HETATM    5  C2  UNK   900      25.729 -20.759 -72.399  1.00  0.00     0.035 A 
HETATM    6  C3  UNK   900      26.324 -19.786 -71.602  1.00  0.00    -0.019 A 
HETATM    7  C4  UNK   900      25.845 -19.270 -70.278  1.00  0.00     0.077 C 
HETATM    8  C5  UNK   900      24.767 -20.132 -69.626  1.00  0.00     0.186 C 
HETATM    9  C7  UNK   900      27.502 -19.333 -72.283  1.00  0.00    -0.001 A 
HETATM   10  C8  UNK   900      23.341 -20.710 -71.628  1.00  0.00     0.233 C 
HETATM   11  C9  UNK   900      27.614 -20.072 -73.457  1.00  0.00     0.043 A 
HETATM   12  C13 UNK   900      28.489 -18.364 -72.000  1.00  0.00     0.014 A 
HETATM   13  C14 UNK   900      28.661 -19.895 -74.369  1.00  0.00     0.030 A 
HETATM   14  C17 UNK   900      29.541 -18.172 -72.904  1.00  0.00     0.001 A 
HETATM   15  C18 UNK   900      29.624 -18.928 -74.070  1.00  0.00     0.002 A 
HETATM   16  H5  UNK   900      26.395 -21.610 -74.228  1.00  0.00     0.166 HD
HETATM   17  H6  UNK   900      22.761 -19.555 -70.046  1.00  0.00     0.163 HD
ENDROOT
BRANCH   4  18
HETATM   18  C6  UNK   900      24.036 -22.422 -73.364  1.00  0.00    -0.011 A 
HETATM   19  C10 UNK   900      23.769 -21.941 -74.677  1.00  0.00    -0.001 A 
HETATM   20  C12 UNK   900      23.392 -23.042 -75.448  1.00  0.00     0.043 A 
HETATM   21  C16 UNK   900      23.813 -20.671 -75.284  1.00  0.00     0.014 A 
HETATM   22  N3  UNK   900      23.431 -24.145 -74.624  1.00  0.00    -0.365 N 
HETATM   23  C19 UNK   900      23.055 -22.937 -76.802  1.00  0.00     0.030 A 
HETATM   24  C11 UNK   900      23.819 -23.780 -73.363  1.00  0.00     0.097 A 
HETATM   25  H10 UNK   900      23.206 -25.088 -74.910  1.00  0.00     0.165 HD
HETATM   26  C21 UNK   900      23.107 -21.667 -77.383  1.00  0.00     0.002 A 
HETATM   27  C20 UNK   900      23.479 -20.550 -76.638  1.00  0.00     0.001 A 
ENDBRANCH   4  18
BRANCH   8  28
HETATM   28  C15 UNK   900      24.403 -19.579 -68.283  1.00  0.00     0.163 C 
HETATM   29  O3  UNK   900      24.900 -18.585 -67.776  1.00  0.00    -0.648 OA
BRANCH  28  30
HETATM   30  O2  UNK   900      23.441 -20.334 -67.699  1.00  0.00    -0.775 OA
HETATM   31  H17 UNK   900      22.659 -20.446 -68.281  1.00  0.00     0.167 HD
ENDBRANCH  28  30
ENDBRANCH   8  28
TORSDOF 3
ENDMDL
MODEL 7
REMARK VINA RESULT:      -6.6     22.550     25.029
REMARK  3 active torsions:
REMARK  status: ('A' for Active; 'I' for Inactive)
REMARK    1  A    between atoms: O2_2  and  C15_21 
REMARK    2  A    between atoms: C1_7  and  C6_12 
REMARK    3  A    between atoms: C5_11  and  C15_21 
ROOT
HETATM    1  O1  UNK   900      16.817 -68.297 -66.526  1.00  0.00    -0.272 OA
HETATM    2  N1  UNK   900      15.772 -64.029 -67.371  1.00  0.00    -0.357 N 
HETATM    3  N2  UNK   900      15.213 -67.709 -65.029  1.00  0.00    -0.345 N 
HETATM    4  C1  UNK   900      16.690 -65.933 -65.960  1.00  0.00     0.163 C 
HETATM    5  C2  UNK   900      15.563 -65.067 -66.488  1.00  0.00     0.035 A 
HETATM    6  C3  UNK   900      14.209 -65.058 -66.169  1.00  0.00    -0.019 A 
HETATM    7  C4  UNK   900      13.491 -65.960 -65.211  1.00  0.00     0.077 C 
HETATM    8  C5  UNK   900      14.413 -66.749 -64.286  1.00  0.00     0.186 C 
HETATM    9  C7  UNK   900      13.591 -64.020 -66.941  1.00  0.00    -0.001 A 
HETATM   10  C8  UNK   900      16.251 -67.405 -65.889  1.00  0.00     0.233 C 
HETATM   11  C9  UNK   900      14.594 -63.398 -67.679  1.00  0.00     0.043 A 
HETATM   12  C13 UNK   900      12.267 -63.547 -67.071  1.00  0.00     0.014 A 
HETATM   13  C14 UNK   900      14.346 -62.326 -68.545  1.00  0.00     0.030 A 
HETATM   14  C17 UNK   900      12.002 -62.479 -67.935  1.00  0.00     0.001 A 
HETATM   15  C18 UNK   900      13.027 -61.878 -68.660  1.00  0.00     0.002 A 
HETATM   16  H5  UNK   900      16.668 -63.765 -67.752  1.00  0.00     0.166 HD
HETATM   17  H6  UNK   900      14.952 -68.690 -64.976  1.00  0.00     0.163 HD
ENDROOT
BRANCH   4  18
HETATM   18  C6  UNK   900      18.016 -65.776 -66.699  1.00  0.00    -0.011 A 
HETATM   19  C10 UNK   900      19.318 -65.945 -66.149  1.00  0.00    -0.001 A 
HETATM   20  C12 UNK   900      20.231 -65.705 -67.177  1.00  0.00     0.043 A 
HETATM   21  C16 UNK   900      19.807 -66.281 -64.872  1.00  0.00     0.014 A 
HETATM   22  N3  UNK   900      19.502 -65.402 -68.305  1.00  0.00    -0.365 N 
HETATM   23  C19 UNK   900      21.616 -65.785 -66.991  1.00  0.00     0.030 A 
HETATM   24  C11 UNK   900      18.162 -65.442 -68.026  1.00  0.00     0.097 A 
HETATM   25  H10 UNK   900      19.898 -65.182 -69.208  1.00  0.00     0.165 HD
HETATM   26  C21 UNK   900      22.078 -66.120 -65.716  1.00  0.00     0.002 A 
HETATM   27  C20 UNK   900      21.190 -66.364 -64.670  1.00  0.00     0.001 A 
ENDBRANCH   4  18
BRANCH   8  28
HETATM   28  C15 UNK   900      13.608 -67.565 -63.323  1.00  0.00     0.163 C 
HETATM   29  O3  UNK   900      12.462 -67.946 -63.513  1.00  0.00    -0.648 OA
BRANCH  28  30
HETATM   30  O2  UNK   900      14.324 -67.828 -62.202  1.00  0.00    -0.775 OA
HETATM   31  H17 UNK   900      14.546 -68.780 -62.125  1.00  0.00     0.167 HD
ENDBRANCH  28  30
ENDBRANCH   8  28
TORSDOF 3
ENDMDL
MODEL 8
REMARK VINA RESULT:      -6.6     31.543     33.856
REMARK  3 active torsions:
REMARK  status: ('A' for Active; 'I' for Inactive)
REMARK    1  A    between atoms: O2_2  and  C15_21 
REMARK    2  A    between atoms: C1_7  and  C6_12 
REMARK    3  A    between atoms: C5_11  and  C15_21 
ROOT
HETATM    1  O1  UNK   900       4.758 -62.197 -60.317  1.00  0.00    -0.272 OA
HETATM    2  N1  UNK   900       1.851 -64.663 -62.661  1.00  0.00    -0.357 N 
HETATM    3  N2  UNK   900       3.060 -60.812 -60.915  1.00  0.00    -0.345 N 
HETATM    4  C1  UNK   900       3.545 -62.796 -62.341  1.00  0.00     0.163 C 
HETATM    5  C2  UNK   900       2.146 -63.376 -62.266  1.00  0.00     0.035 A 
HETATM    6  C3  UNK   900       0.943 -62.779 -61.906  1.00  0.00    -0.019 A 
HETATM    7  C4  UNK   900       0.723 -61.368 -61.451  1.00  0.00     0.077 C 
HETATM    8  C5  UNK   900       1.904 -60.437 -61.713  1.00  0.00     0.186 C 
HETATM    9  C7  UNK   900      -0.085 -63.771 -62.033  1.00  0.00    -0.001 A 
HETATM   10  C8  UNK   900       3.840 -61.937 -61.100  1.00  0.00     0.233 C 
HETATM   11  C9  UNK   900       0.515 -64.934 -62.506  1.00  0.00     0.043 A 
HETATM   12  C13 UNK   900      -1.477 -63.781 -61.795  1.00  0.00     0.014 A 
HETATM   13  C14 UNK   900      -0.200 -66.112 -62.754  1.00  0.00     0.030 A 
HETATM   14  C17 UNK   900      -2.206 -64.951 -62.034  1.00  0.00     0.001 A 
HETATM   15  C18 UNK   900      -1.575 -66.099 -62.508  1.00  0.00     0.002 A 
HETATM   16  H5  UNK   900       2.523 -65.330 -63.012  1.00  0.00     0.166 HD
HETATM   17  H6  UNK   900       3.285 -60.243 -60.104  1.00  0.00     0.163 HD
ENDROOT
BRANCH   4  18
HETATM   18  C6  UNK   900       4.648 -63.820 -62.593  1.00  0.00    -0.011 A 
HETATM   19  C10 UNK   900       5.170 -64.209 -63.859  1.00  0.00    -0.001 A 
HETATM   20  C12 UNK   900       6.159 -65.165 -63.618  1.00  0.00     0.043 A 
HETATM   21  C16 UNK   900       4.895 -63.839 -65.190  1.00  0.00     0.014 A 
HETATM   22  N3  UNK   900       6.226 -65.343 -62.254  1.00  0.00    -0.365 N 
HETATM   23  C19 UNK   900       6.889 -65.772 -64.646  1.00  0.00     0.030 A 
HETATM   24  C11 UNK   900       5.318 -64.534 -61.626  1.00  0.00     0.097 A 
HETATM   25  H10 UNK   900       6.857 -65.978 -61.784  1.00  0.00     0.165 HD
HETATM   26  C21 UNK   900       6.600 -65.388 -65.958  1.00  0.00     0.002 A 
HETATM   27  C20 UNK   900       5.618 -64.437 -66.228  1.00  0.00     0.001 A 
ENDBRANCH   4  18
BRANCH   8  28
HETATM   28  C15 UNK   900       1.567 -59.041 -61.291  1.00  0.00     0.163 C 
HETATM   29  O3  UNK   900       0.706 -58.742 -60.477  1.00  0.00    -0.648 OA
BRANCH  28  30
HETATM   30  O2  UNK   900       2.350 -58.143 -61.937  1.00  0.00    -0.775 OA
HETATM   31  H17 UNK   900       2.772 -57.511 -61.317  1.00  0.00     0.167 HD
ENDBRANCH  28  30
ENDBRANCH   8  28
TORSDOF 3
ENDMDL
MODEL 9
REMARK VINA RESULT:      -6.6     27.764     30.142
REMARK  3 active torsions:
REMARK  status: ('A' for Active; 'I' for Inactive)
REMARK    1  A    between atoms: O2_2  and  C15_21 
REMARK    2  A    between atoms: C1_7  and  C6_12 
REMARK    3  A    between atoms: C5_11  and  C15_21 
ROOT
HETATM    1  O1  UNK   900      26.553 -21.978 -72.794  1.00  0.00    -0.272 OA
HETATM    2  N1  UNK   900      22.963 -19.309 -72.725  1.00  0.00    -0.357 N 
HETATM    3  N2  UNK   900      24.978 -22.968 -74.098  1.00  0.00    -0.345 N 
HETATM    4  C1  UNK   900      24.235 -21.459 -72.261  1.00  0.00     0.163 C 
HETATM    5  C2  UNK   900      23.422 -20.537 -73.148  1.00  0.00     0.035 A 
HETATM    6  C3  UNK   900      22.922 -20.733 -74.432  1.00  0.00    -0.019 A 
HETATM    7  C4  UNK   900      23.097 -21.938 -75.306  1.00  0.00     0.077 C 
HETATM    8  C5  UNK   900      23.619 -23.171 -74.573  1.00  0.00     0.186 C 
HETATM    9  C7  UNK   900      22.198 -19.550 -74.798  1.00  0.00    -0.001 A 
HETATM   10  C8  UNK   900      25.359 -22.130 -73.067  1.00  0.00     0.233 C 
HETATM   11  C9  UNK   900      22.244 -18.682 -73.711  1.00  0.00     0.043 A 
HETATM   12  C13 UNK   900      21.501 -19.144 -75.955  1.00  0.00     0.014 A 
HETATM   13  C14 UNK   900      21.629 -17.424 -73.717  1.00  0.00     0.030 A 
HETATM   14  C17 UNK   900      20.884 -17.888 -75.980  1.00  0.00     0.001 A 
HETATM   15  C18 UNK   900      20.948 -17.042 -74.875  1.00  0.00     0.002 A 
HETATM   16  H5  UNK   900      23.135 -18.909 -71.814  1.00  0.00     0.166 HD
HETATM   17  H6  UNK   900      25.733 -23.423 -74.604  1.00  0.00     0.163 HD
ENDROOT
BRANCH   4  18
HETATM   18  C6  UNK   900      24.766 -20.812 -70.985  1.00  0.00    -0.011 A 
HETATM   19  C10 UNK   900      25.641 -19.692 -70.903  1.00  0.00    -0.001 A 
HETATM   20  C12 UNK   900      25.863 -19.444 -69.547  1.00  0.00     0.043 A 
HETATM   21  C16 UNK   900      26.266 -18.864 -71.856  1.00  0.00     0.014 A 
HETATM   22  N3  UNK   900      25.146 -20.383 -68.841  1.00  0.00    -0.365 N 
HETATM   23  C19 UNK   900      26.683 -18.404 -69.094  1.00  0.00     0.030 A 
HETATM   24  C11 UNK   900      24.480 -21.215 -69.701  1.00  0.00     0.097 A 
HETATM   25  H10 UNK   900      25.115 -20.449 -67.832  1.00  0.00     0.165 HD
HETATM   26  C21 UNK   900      27.292 -17.595 -70.057  1.00  0.00     0.002 A 
HETATM   27  C20 UNK   900      27.089 -17.820 -71.417  1.00  0.00     0.001 A 
ENDBRANCH   4  18
BRANCH   8  28
HETATM   28  C15 UNK   900      23.696 -24.337 -75.508  1.00  0.00     0.163 C 
HETATM   29  O3  UNK   900      24.693 -24.675 -76.128  1.00  0.00    -0.648 OA
BRANCH  28  30
HETATM   30  O2  UNK   900      22.502 -24.974 -75.577  1.00  0.00    -0.775 OA
HETATM   31  H17 UNK   900      22.560 -25.805 -76.095  1.00  0.00     0.167 HD
ENDBRANCH  28  30
ENDBRANCH   8  28
TORSDOF 3
ENDMDL
