MODEL 1
REMARK VINA RESULT:      -7.7      0.000      0.000
REMARK  2 active torsions:
REMARK  status: ('A' for Active; 'I' for Inactive)
REMARK    1  A    between atoms: O2_2  and  C19_23 
REMARK    2  A    between atoms: C1_5  and  C7_11 
ROOT
HETATM    1  O1  UNK   900      31.336 -50.390 -64.086  1.00  0.00    -0.288 OA
HETATM    2  N1  UNK   900      33.521 -47.712 -63.193  1.00  0.00    -0.368 N 
HETATM    3  N2  UNK   900      31.463 -50.848 -61.312  1.00  0.00    -0.362 N 
HETATM    4  C1  UNK   900      32.448 -48.301 -64.010  1.00  0.00     0.194 C 
HETATM    5  C2  UNK   900      33.169 -46.871 -62.136  1.00  0.00     0.042 A 
HETATM    6  C3  UNK   900      31.832 -49.524 -63.357  1.00  0.00     0.203 C 
HETATM    7  C4  UNK   900      32.399 -47.333 -61.048  1.00  0.00     0.003 A 
HETATM    8  C5  UNK   900      31.804 -49.650 -61.912  1.00  0.00     0.092 A 
HETATM    9  C6  UNK   900      32.041 -48.743 -60.885  1.00  0.00     0.008 A 
HETATM   10  C8  UNK   900      34.839 -47.566 -63.799  1.00  0.00     0.151 C 
HETATM   11  C9  UNK   900      31.857 -49.451 -59.655  1.00  0.00     0.032 A 
HETATM   12  C10 UNK   900      33.559 -45.513 -62.144  1.00  0.00     0.030 A 
HETATM   13  C11 UNK   900      32.015 -46.428 -60.037  1.00  0.00     0.014 A 
HETATM   14  C12 UNK   900      31.504 -50.743 -59.954  1.00  0.00     0.089 A 
HETATM   15  C15 UNK   900      33.178 -44.633 -61.132  1.00  0.00     0.002 A 
HETATM   16  C16 UNK   900      32.398 -45.089 -60.081  1.00  0.00     0.001 A 
HETATM   17  H5  UNK   900      31.228 -51.691 -61.818  1.00  0.00     0.165 HD
ENDROOT
BRANCH   4  18
HETATM   18  C7  UNK   900      31.440 -47.278 -64.518  1.00  0.00    -0.028 A 
HETATM   19  C13 UNK   900      31.793 -46.401 -65.543  1.00  0.00     0.012 A 
HETATM   20  C17 UNK   900      30.870 -45.464 -66.008  1.00  0.00     0.037 A 
HETATM   21  C19 UNK   900      29.594 -45.405 -65.448  1.00  0.00     0.065 A 
HETATM   22  C18 UNK   900      29.241 -46.283 -64.422  1.00  0.00     0.037 A 
HETATM   23  C14 UNK   900      30.164 -47.220 -63.958  1.00  0.00     0.012 A 
BRANCH  21  24
HETATM   24  O2  UNK   900      28.693 -44.492 -65.902  1.00  0.00    -0.361 OA
HETATM   25  H16 UNK   900      28.976 -43.605 -65.622  1.00  0.00     0.217 HD
ENDBRANCH  21  24
ENDBRANCH   4  18
TORSDOF 2
ENDMDL
MODEL 2
REMARK VINA RESULT:      -6.8      2.375      5.243
REMARK  2 active torsions:
REMARK  status: ('A' for Active; 'I' for Inactive)
REMARK    1  A    between atoms: O2_2  and  C19_23 
REMARK    2  A    between atoms: C1_5  and  C7_11 
ROOT
HETATM    1  O1  UNK   900      34.346 -49.328 -64.844  1.00  0.00    -0.288 OA
HETATM    2  N1  UNK   900      31.658 -47.589 -63.266  1.00  0.00    -0.368 N 
HETATM    3  N2  UNK   900      35.425 -46.729 -64.903  1.00  0.00    -0.362 N 
HETATM    4  C1  UNK   900      32.517 -48.770 -63.448  1.00  0.00     0.194 C 
HETATM    5  C2  UNK   900      31.937 -46.718 -62.211  1.00  0.00     0.042 A 
HETATM    6  C3  UNK   900      33.804 -48.439 -64.180  1.00  0.00     0.203 C 
HETATM    7  C4  UNK   900      33.160 -46.019 -62.134  1.00  0.00     0.003 A 
HETATM    8  C5  UNK   900      34.393 -47.117 -64.068  1.00  0.00     0.092 A 
HETATM    9  C6  UNK   900      34.149 -46.048 -63.213  1.00  0.00     0.008 A 
HETATM   10  C8  UNK   900      30.299 -47.645 -63.790  1.00  0.00     0.151 C 
HETATM   11  C9  UNK   900      35.053 -45.003 -63.586  1.00  0.00     0.032 A 
HETATM   12  C10 UNK   900      31.001 -46.535 -61.169  1.00  0.00     0.030 A 
HETATM   13  C11 UNK   900      33.421 -45.201 -61.015  1.00  0.00     0.014 A 
HETATM   14  C12 UNK   900      35.821 -45.454 -64.629  1.00  0.00     0.089 A 
HETATM   15  C15 UNK   900      31.271 -45.716 -60.074  1.00  0.00     0.002 A 
HETATM   16  C16 UNK   900      32.486 -45.054 -59.992  1.00  0.00     0.001 A 
HETATM   17  H5  UNK   900      35.821 -47.313 -65.627  1.00  0.00     0.165 HD
ENDROOT
BRANCH   4  18
HETATM   18  C7  UNK   900      32.701 -49.589 -62.178  1.00  0.00    -0.028 A 
HETATM   19  C13 UNK   900      33.938 -49.609 -61.535  1.00  0.00     0.012 A 
HETATM   20  C17 UNK   900      34.107 -50.359 -60.371  1.00  0.00     0.037 A 
HETATM   21  C19 UNK   900      33.039 -51.091 -59.852  1.00  0.00     0.065 A 
HETATM   22  C18 UNK   900      31.802 -51.071 -60.496  1.00  0.00     0.037 A 
HETATM   23  C14 UNK   900      31.633 -50.320 -61.659  1.00  0.00     0.012 A 
BRANCH  21  24
HETATM   24  O2  UNK   900      33.204 -51.823 -58.716  1.00  0.00    -0.361 OA
HETATM   25  H16 UNK   900      34.153 -51.987 -58.582  1.00  0.00     0.217 HD
ENDBRANCH  21  24
ENDBRANCH   4  18
TORSDOF 2
ENDMDL
MODEL 3
REMARK VINA RESULT:      -6.7     11.055     13.270
REMARK  2 active torsions:
REMARK  status: ('A' for Active; 'I' for Inactive)
REMARK    1  A    between atoms: O2_2  and  C19_23 
REMARK    2  A    between atoms: C1_5  and  C7_11 
ROOT
HETATM    1  O1  UNK   900      35.094 -36.550 -54.669  1.00  0.00    -0.288 OA
HETATM    2  N1  UNK   900      38.098 -37.061 -56.527  1.00  0.00    -0.368 N 
HETATM    3  N2  UNK   900      34.260 -35.477 -57.132  1.00  0.00    -0.362 N 
HETATM    4  C1  UNK   900      37.119 -37.452 -55.501  1.00  0.00     0.194 C 
HETATM    5  C2  UNK   900      38.027 -37.668 -57.782  1.00  0.00     0.042 A 
HETATM    6  C3  UNK   900      35.791 -36.739 -55.671  1.00  0.00     0.203 C 
HETATM    7  C4  UNK   900      36.891 -37.527 -58.608  1.00  0.00     0.003 A 
HETATM    8  C5  UNK   900      35.344 -36.324 -56.988  1.00  0.00     0.092 A 
HETATM    9  C6  UNK   900      35.784 -36.631 -58.270  1.00  0.00     0.008 A 
HETATM   10  C8  UNK   900      39.375 -36.518 -56.081  1.00  0.00     0.151 C 
HETATM   11  C9  UNK   900      34.943 -35.916 -59.181  1.00  0.00     0.032 A 
HETATM   12  C10 UNK   900      39.092 -38.469 -58.250  1.00  0.00     0.030 A 
HETATM   13  C11 UNK   900      36.840 -38.213 -59.839  1.00  0.00     0.014 A 
HETATM   14  C12 UNK   900      34.019 -35.215 -58.448  1.00  0.00     0.089 A 
HETATM   15  C15 UNK   900      39.030 -39.134 -59.474  1.00  0.00     0.002 A 
HETATM   16  C16 UNK   900      37.899 -39.012 -60.267  1.00  0.00     0.001 A 
HETATM   17  H5  UNK   900      33.730 -35.094 -56.362  1.00  0.00     0.165 HD
ENDROOT
BRANCH   4  18
HETATM   18  C7  UNK   900      37.011 -38.958 -55.306  1.00  0.00    -0.028 A 
HETATM   19  C13 UNK   900      35.926 -39.654 -55.841  1.00  0.00     0.012 A 
HETATM   20  C17 UNK   900      35.827 -41.034 -55.663  1.00  0.00     0.037 A 
HETATM   21  C19 UNK   900      36.812 -41.718 -54.950  1.00  0.00     0.065 A 
HETATM   22  C18 UNK   900      37.897 -41.021 -54.415  1.00  0.00     0.037 A 
HETATM   23  C14 UNK   900      37.996 -39.642 -54.594  1.00  0.00     0.012 A 
BRANCH  21  24
HETATM   24  O2  UNK   900      36.716 -43.064 -54.777  1.00  0.00    -0.361 OA
HETATM   25  H16 UNK   900      36.243 -43.446 -55.536  1.00  0.00     0.217 HD
ENDBRANCH  21  24
ENDBRANCH   4  18
TORSDOF 2
ENDMDL
MODEL 4
REMARK VINA RESULT:      -6.5      9.487     12.639
REMARK  2 active torsions:
REMARK  status: ('A' for Active; 'I' for Inactive)
REMARK    1  A    between atoms: O2_2  and  C19_23 
REMARK    2  A    between atoms: C1_5  and  C7_11 
ROOT
HETATM    1  O1  UNK   900      37.518 -35.769 -55.550  1.00  0.00    -0.288 OA
HETATM    2  N1  UNK   900      37.159 -39.273 -56.123  1.00  0.00    -0.368 N 
HETATM    3  N2  UNK   900      39.284 -36.029 -57.724  1.00  0.00    -0.362 N 
HETATM    4  C1  UNK   900      36.632 -37.957 -55.728  1.00  0.00     0.194 C 
HETATM    5  C2  UNK   900      36.912 -39.729 -57.419  1.00  0.00     0.042 A 
HETATM    6  C3  UNK   900      37.515 -36.818 -56.201  1.00  0.00     0.203 C 
HETATM    7  C4  UNK   900      37.394 -39.037 -58.550  1.00  0.00     0.003 A 
HETATM    8  C5  UNK   900      38.308 -36.956 -57.409  1.00  0.00     0.092 A 
HETATM    9  C6  UNK   900      38.295 -37.888 -58.440  1.00  0.00     0.008 A 
HETATM   10  C8  UNK   900      37.414 -40.250 -55.071  1.00  0.00     0.151 C 
HETATM   11  C9  UNK   900      39.316 -37.499 -59.365  1.00  0.00     0.032 A 
HETATM   12  C10 UNK   900      36.141 -40.893 -57.633  1.00  0.00     0.030 A 
HETATM   13  C11 UNK   900      37.064 -39.502 -59.840  1.00  0.00     0.014 A 
HETATM   14  C12 UNK   900      39.906 -36.354 -58.893  1.00  0.00     0.089 A 
HETATM   15  C15 UNK   900      35.830 -41.344 -58.914  1.00  0.00     0.002 A 
HETATM   16  C16 UNK   900      36.285 -40.643 -60.020  1.00  0.00     0.001 A 
HETATM   17  H5  UNK   900      39.513 -35.227 -57.154  1.00  0.00     0.165 HD
ENDROOT
BRANCH   4  18
HETATM   18  C7  UNK   900      35.150 -37.780 -56.031  1.00  0.00    -0.028 A 
HETATM   19  C13 UNK   900      34.744 -36.897 -57.032  1.00  0.00     0.012 A 
HETATM   20  C17 UNK   900      33.387 -36.735 -57.310  1.00  0.00     0.037 A 
HETATM   21  C19 UNK   900      32.436 -37.454 -56.586  1.00  0.00     0.065 A 
HETATM   22  C18 UNK   900      32.843 -38.337 -55.585  1.00  0.00     0.037 A 
HETATM   23  C14 UNK   900      34.200 -38.500 -55.308  1.00  0.00     0.012 A 
BRANCH  21  24
HETATM   24  O2  UNK   900      31.112 -37.297 -56.858  1.00  0.00    -0.361 OA
HETATM   25  H16 UNK   900      30.716 -38.172 -57.012  1.00  0.00     0.217 HD
ENDBRANCH  21  24
ENDBRANCH   4  18
TORSDOF 2
ENDMDL
MODEL 5
REMARK VINA RESULT:      -6.1     27.982     30.030
REMARK  2 active torsions:
REMARK  status: ('A' for Active; 'I' for Inactive)
REMARK    1  A    between atoms: O2_2  and  C19_23 
REMARK    2  A    between atoms: C1_5  and  C7_11 
ROOT
HETATM    1  O1  UNK   900      26.789 -19.097 -75.093  1.00  0.00    -0.288 OA
HETATM    2  N1  UNK   900      25.270 -21.937 -73.554  1.00  0.00    -0.368 N 
HETATM    3  N2  UNK   900      27.874 -21.106 -76.737  1.00  0.00    -0.362 N 
HETATM    4  C1  UNK   900      25.266 -20.529 -73.980  1.00  0.00     0.194 C 
HETATM    5  C2  UNK   900      24.620 -22.878 -74.354  1.00  0.00     0.042 A 
HETATM    6  C3  UNK   900      26.326 -20.241 -75.026  1.00  0.00     0.203 C 
HETATM    7  C4  UNK   900      25.030 -23.130 -75.680  1.00  0.00     0.003 A 
HETATM    8  C5  UNK   900      26.756 -21.281 -75.942  1.00  0.00     0.092 A 
HETATM    9  C6  UNK   900      26.237 -22.532 -76.254  1.00  0.00     0.008 A 
HETATM   10  C8  UNK   900      25.441 -22.220 -72.134  1.00  0.00     0.151 C 
HETATM   11  C9  UNK   900      27.100 -23.106 -77.240  1.00  0.00     0.032 A 
HETATM   12  C10 UNK   900      23.506 -23.591 -73.857  1.00  0.00     0.030 A 
HETATM   13  C11 UNK   900      24.301 -24.043 -76.469  1.00  0.00     0.014 A 
HETATM   14  C12 UNK   900      28.097 -22.204 -77.513  1.00  0.00     0.089 A 
HETATM   15  C15 UNK   900      22.801 -24.497 -74.648  1.00  0.00     0.002 A 
HETATM   16  C16 UNK   900      23.194 -24.718 -75.958  1.00  0.00     0.001 A 
HETATM   17  H5  UNK   900      28.453 -20.278 -76.731  1.00  0.00     0.165 HD
ENDROOT
BRANCH   4  18
HETATM   18  C7  UNK   900      23.879 -20.001 -74.321  1.00  0.00    -0.028 A 
HETATM   19  C13 UNK   900      23.096 -19.408 -73.331  1.00  0.00     0.012 A 
HETATM   20  C17 UNK   900      21.825 -18.924 -73.644  1.00  0.00     0.037 A 
HETATM   21  C19 UNK   900      21.338 -19.034 -74.946  1.00  0.00     0.065 A 
HETATM   22  C18 UNK   900      22.121 -19.629 -75.936  1.00  0.00     0.037 A 
HETATM   23  C14 UNK   900      23.392 -20.111 -75.624  1.00  0.00     0.012 A 
BRANCH  21  24
HETATM   24  O2  UNK   900      20.099 -18.562 -75.252  1.00  0.00    -0.361 OA
HETATM   25  H16 UNK   900      19.645 -18.313 -74.428  1.00  0.00     0.217 HD
ENDBRANCH  21  24
ENDBRANCH   4  18
TORSDOF 2
ENDMDL
MODEL 6
REMARK VINA RESULT:      -6.1     32.881     35.609
REMARK  2 active torsions:
REMARK  status: ('A' for Active; 'I' for Inactive)
REMARK    1  A    between atoms: O2_2  and  C19_23 
REMARK    2  A    between atoms: C1_5  and  C7_11 
ROOT
HETATM    1  O1  UNK   900       5.316 -69.655 -53.766  1.00  0.00    -0.288 OA
HETATM    2  N1  UNK   900       7.062 -67.477 -51.541  1.00  0.00    -0.368 N 
HETATM    3  N2  UNK   900       6.705 -71.593 -52.271  1.00  0.00    -0.362 N 
HETATM    4  C1  UNK   900       5.891 -67.843 -52.354  1.00  0.00     0.194 C 
HETATM    5  C2  UNK   900       7.027 -67.735 -50.169  1.00  0.00     0.042 A 
HETATM    6  C3  UNK   900       5.883 -69.315 -52.722  1.00  0.00     0.203 C 
HETATM    7  C4  UNK   900       6.909 -69.048 -49.667  1.00  0.00     0.003 A 
HETATM    8  C5  UNK   900       6.500 -70.294 -51.846  1.00  0.00     0.092 A 
HETATM    9  C6  UNK   900       6.957 -70.226 -50.535  1.00  0.00     0.008 A 
HETATM   10  C8  UNK   900       7.933 -66.418 -52.035  1.00  0.00     0.151 C 
HETATM   11  C9  UNK   900       7.467 -71.522 -50.205  1.00  0.00     0.032 A 
HETATM   12  C10 UNK   900       7.083 -66.672 -49.240  1.00  0.00     0.030 A 
HETATM   13  C11 UNK   900       6.813 -69.252 -48.275  1.00  0.00     0.014 A 
HETATM   14  C12 UNK   900       7.298 -72.337 -51.296  1.00  0.00     0.089 A 
HETATM   15  C15 UNK   900       6.995 -66.891 -47.866  1.00  0.00     0.002 A 
HETATM   16  C16 UNK   900       6.852 -68.182 -47.383  1.00  0.00     0.001 A 
HETATM   17  H5  UNK   900       6.459 -71.938 -53.189  1.00  0.00     0.165 HD
ENDROOT
BRANCH   4  18
HETATM   18  C7  UNK   900       4.575 -67.321 -51.795  1.00  0.00    -0.028 A 
HETATM   19  C13 UNK   900       4.232 -65.979 -51.957  1.00  0.00     0.012 A 
HETATM   20  C17 UNK   900       3.025 -65.500 -51.445  1.00  0.00     0.037 A 
HETATM   21  C19 UNK   900       2.163 -66.365 -50.771  1.00  0.00     0.065 A 
HETATM   22  C18 UNK   900       2.506 -67.708 -50.610  1.00  0.00     0.037 A 
HETATM   23  C14 UNK   900       3.712 -68.185 -51.122  1.00  0.00     0.012 A 
BRANCH  21  24
HETATM   24  O2  UNK   900       0.985 -65.899 -50.272  1.00  0.00    -0.361 OA
HETATM   25  H16 UNK   900       0.883 -66.217 -49.358  1.00  0.00     0.217 HD
ENDBRANCH  21  24
ENDBRANCH   4  18
TORSDOF 2
ENDMDL
MODEL 7
REMARK VINA RESULT:      -6.0     33.867     35.948
REMARK  2 active torsions:
REMARK  status: ('A' for Active; 'I' for Inactive)
REMARK    1  A    between atoms: O2_2  and  C19_23 
REMARK    2  A    between atoms: C1_5  and  C7_11 
ROOT
HETATM    1  O1  UNK   900       6.486 -72.820 -50.829  1.00  0.00    -0.288 OA
HETATM    2  N1  UNK   900       5.300 -69.700 -49.565  1.00  0.00    -0.368 N 
HETATM    3  N2  UNK   900       5.623 -71.678 -53.251  1.00  0.00    -0.362 N 
HETATM    4  C1  UNK   900       6.229 -70.841 -49.554  1.00  0.00     0.194 C 
HETATM    5  C2  UNK   900       5.706 -68.517 -50.184  1.00  0.00     0.042 A 
HETATM    6  C3  UNK   900       6.201 -71.618 -50.857  1.00  0.00     0.203 C 
HETATM    7  C4  UNK   900       6.007 -68.468 -51.562  1.00  0.00     0.003 A 
HETATM    8  C5  UNK   900       5.879 -70.950 -52.104  1.00  0.00     0.092 A 
HETATM    9  C6  UNK   900       5.781 -69.608 -52.453  1.00  0.00     0.008 A 
HETATM   10  C8  UNK   900       4.286 -69.634 -48.520  1.00  0.00     0.151 C 
HETATM   11  C9  UNK   900       5.431 -69.563 -53.840  1.00  0.00     0.032 A 
HETATM   12  C10 UNK   900       5.853 -67.330 -49.431  1.00  0.00     0.030 A 
HETATM   13  C11 UNK   900       6.475 -67.264 -52.127  1.00  0.00     0.014 A 
HETATM   14  C12 UNK   900       5.340 -70.853 -54.299  1.00  0.00     0.089 A 
HETATM   15  C15 UNK   900       6.309 -66.145 -50.007  1.00  0.00     0.002 A 
HETATM   16  C16 UNK   900       6.628 -66.114 -51.356  1.00  0.00     0.001 A 
HETATM   17  H5  UNK   900       5.633 -72.687 -53.299  1.00  0.00     0.165 HD
ENDROOT
BRANCH   4  18
HETATM   18  C7  UNK   900       7.623 -70.486 -49.056  1.00  0.00    -0.028 A 
HETATM   19  C13 UNK   900       7.845 -70.275 -47.695  1.00  0.00     0.012 A 
HETATM   20  C17 UNK   900       9.123 -69.950 -47.239  1.00  0.00     0.037 A 
HETATM   21  C19 UNK   900      10.178 -69.836 -48.144  1.00  0.00     0.065 A 
HETATM   22  C18 UNK   900       9.956 -70.048 -49.506  1.00  0.00     0.037 A 
HETATM   23  C14 UNK   900       8.679 -70.373 -49.961  1.00  0.00     0.012 A 
BRANCH  21  24
HETATM   24  O2  UNK   900      11.425 -69.520 -47.699  1.00  0.00    -0.361 OA
HETATM   25  H16 UNK   900      11.485 -68.555 -47.590  1.00  0.00     0.217 HD
ENDBRANCH  21  24
ENDBRANCH   4  18
TORSDOF 2
ENDMDL
MODEL 8
REMARK VINA RESULT:      -6.0     26.837     29.207
REMARK  2 active torsions:
REMARK  status: ('A' for Active; 'I' for Inactive)
REMARK    1  A    between atoms: O2_2  and  C19_23 
REMARK    2  A    between atoms: C1_5  and  C7_11 
ROOT
HETATM    1  O1  UNK   900      24.273 -56.865 -36.122  1.00  0.00    -0.288 OA
HETATM    2  N1  UNK   900      26.161 -59.881 -35.845  1.00  0.00    -0.368 N 
HETATM    3  N2  UNK   900      26.605 -56.033 -37.458  1.00  0.00    -0.362 N 
HETATM    4  C1  UNK   900      24.896 -59.146 -36.000  1.00  0.00     0.194 C 
HETATM    5  C2  UNK   900      26.769 -60.410 -36.984  1.00  0.00     0.042 A 
HETATM    6  C3  UNK   900      25.114 -57.710 -36.441  1.00  0.00     0.203 C 
HETATM    7  C4  UNK   900      27.214 -59.582 -38.037  1.00  0.00     0.003 A 
HETATM    8  C5  UNK   900      26.269 -57.357 -37.246  1.00  0.00     0.092 A 
HETATM    9  C6  UNK   900      27.197 -58.121 -37.945  1.00  0.00     0.008 A 
HETATM   10  C8  UNK   900      26.442 -60.491 -34.551  1.00  0.00     0.151 C 
HETATM   11  C9  UNK   900      28.112 -57.206 -38.555  1.00  0.00     0.032 A 
HETATM   12  C10 UNK   900      26.932 -61.806 -37.124  1.00  0.00     0.030 A 
HETATM   13  C11 UNK   900      27.763 -60.169 -39.195  1.00  0.00     0.014 A 
HETATM   14  C12 UNK   900      27.721 -55.931 -38.234  1.00  0.00     0.089 A 
HETATM   15  C15 UNK   900      27.485 -62.370 -38.273  1.00  0.00     0.002 A 
HETATM   16  C16 UNK   900      27.894 -61.551 -39.314  1.00  0.00     0.001 A 
HETATM   17  H5  UNK   900      26.096 -55.248 -37.075  1.00  0.00     0.165 HD
ENDROOT
BRANCH   4  18
HETATM   18  C7  UNK   900      23.847 -59.904 -36.803  1.00  0.00    -0.028 A 
HETATM   19  C13 UNK   900      23.540 -59.503 -38.103  1.00  0.00     0.012 A 
HETATM   20  C17 UNK   900      22.579 -60.198 -38.838  1.00  0.00     0.037 A 
HETATM   21  C19 UNK   900      21.925 -61.292 -38.273  1.00  0.00     0.065 A 
HETATM   22  C18 UNK   900      22.233 -61.693 -36.972  1.00  0.00     0.037 A 
HETATM   23  C14 UNK   900      23.194 -60.999 -36.237  1.00  0.00     0.012 A 
BRANCH  21  24
HETATM   24  O2  UNK   900      20.989 -61.971 -38.990  1.00  0.00    -0.361 OA
HETATM   25  H16 UNK   900      20.171 -61.445 -39.016  1.00  0.00     0.217 HD
ENDBRANCH  21  24
ENDBRANCH   4  18
TORSDOF 2
ENDMDL
MODEL 9
REMARK VINA RESULT:      -5.9     33.327     36.108
REMARK  2 active torsions:
REMARK  status: ('A' for Active; 'I' for Inactive)
REMARK    1  A    between atoms: O2_2  and  C19_23 
REMARK    2  A    between atoms: C1_5  and  C7_11 
ROOT
HETATM    1  O1  UNK   900       7.184 -69.738 -49.143  1.00  0.00    -0.288 OA
HETATM    2  N1  UNK   900       6.243 -66.869 -51.048  1.00  0.00    -0.368 N 
HETATM    3  N2  UNK   900       5.850 -68.303 -47.124  1.00  0.00    -0.362 N 
HETATM    4  C1  UNK   900       6.505 -68.310 -50.906  1.00  0.00     0.194 C 
HETATM    5  C2  UNK   900       4.921 -66.424 -50.999  1.00  0.00     0.042 A 
HETATM    6  C3  UNK   900       6.502 -68.757 -49.456  1.00  0.00     0.203 C 
HETATM    7  C4  UNK   900       4.123 -66.602 -49.849  1.00  0.00     0.003 A 
HETATM    8  C5  UNK   900       5.689 -68.061 -48.476  1.00  0.00     0.092 A 
HETATM    9  C6  UNK   900       4.663 -67.131 -48.595  1.00  0.00     0.008 A 
HETATM   10  C8  UNK   900       7.231 -66.062 -51.752  1.00  0.00     0.151 C 
HETATM   11  C9  UNK   900       4.240 -66.806 -47.267  1.00  0.00     0.032 A 
HETATM   12  C10 UNK   900       4.334 -65.801 -52.124  1.00  0.00     0.030 A 
HETATM   13  C11 UNK   900       2.774 -66.193 -49.872  1.00  0.00     0.014 A 
HETATM   14  C12 UNK   900       4.991 -67.543 -46.387  1.00  0.00     0.089 A 
HETATM   15  C15 UNK   900       3.001 -65.395 -52.127  1.00  0.00     0.002 A 
HETATM   16  C16 UNK   900       2.217 -65.598 -51.002  1.00  0.00     0.001 A 
HETATM   17  H5  UNK   900       6.526 -68.948 -46.737  1.00  0.00     0.165 HD
ENDROOT
BRANCH   4  18
HETATM   18  C7  UNK   900       5.667 -69.175 -51.838  1.00  0.00    -0.028 A 
HETATM   19  C13 UNK   900       5.926 -69.178 -53.208  1.00  0.00     0.012 A 
HETATM   20  C17 UNK   900       5.158 -69.970 -54.062  1.00  0.00     0.037 A 
HETATM   21  C19 UNK   900       4.131 -70.760 -53.545  1.00  0.00     0.065 A 
HETATM   22  C18 UNK   900       3.872 -70.757 -52.174  1.00  0.00     0.037 A 
HETATM   23  C14 UNK   900       4.640 -69.965 -51.321  1.00  0.00     0.012 A 
BRANCH  21  24
HETATM   24  O2  UNK   900       3.382 -71.534 -54.377  1.00  0.00    -0.361 OA
HETATM   25  H16 UNK   900       2.599 -71.849 -53.894  1.00  0.00     0.217 HD
ENDBRANCH  21  24
ENDBRANCH   4  18
TORSDOF 2
ENDMDL
