MODEL 1
REMARK VINA RESULT:     -10.3      0.000      0.000
REMARK  6 active torsions:
REMARK  status: ('A' for Active; 'I' for Inactive)
REMARK    1  A    between atoms: O1_1  and  C7_12 
REMARK    2  A    between atoms: O2_2  and  C8_13 
REMARK    3  A    between atoms: O3_3  and  C14_19 
REMARK    4  A    between atoms: O5_5  and  C20_25 
REMARK    5  A    between atoms: C9_14  and  C15_20 
REMARK    6  A    between atoms: C17_22  and  C20_25 
ROOT
HETATM    1  O4  UNK   900      23.768 -37.025 -62.931  1.00  0.00    -0.290 OA
HETATM    2  C1  UNK   900      23.001 -35.874 -68.485  1.00  0.00    -0.008 C 
HETATM    3  C2  UNK   900      24.880 -35.721 -66.066  1.00  0.00     0.014 C 
HETATM    4  C3  UNK   900      23.637 -37.139 -67.821  1.00  0.00     0.030 C 
HETATM    5  C4  UNK   900      23.897 -36.861 -66.345  1.00  0.00    -0.053 C 
HETATM    6  C5  UNK   900      23.990 -34.680 -68.265  1.00  0.00     0.014 C 
HETATM    7  C6  UNK   900      24.377 -34.451 -66.792  1.00  0.00     0.017 C 
HETATM    8  C7  UNK   900      22.707 -36.082 -70.009  1.00  0.00     0.160 C 
HETATM    9  C8  UNK   900      24.790 -35.533 -64.534  1.00  0.00     0.205 C 
HETATM   10  C9  UNK   900      23.361 -37.417 -65.246  1.00  0.00    -0.003 C 
HETATM   11  C10 UNK   900      22.924 -38.452 -68.184  1.00  0.00     0.037 C 
HETATM   12  C11 UNK   900      21.641 -35.512 -67.815  1.00  0.00     0.018 C 
HETATM   13  C12 UNK   900      26.309 -36.070 -66.525  1.00  0.00     0.023 C 
HETATM   14  C13 UNK   900      23.949 -36.700 -64.096  1.00  0.00     0.185 C 
HETATM   15  C14 UNK   900      23.762 -36.864 -70.821  1.00  0.00     0.178 C 
HETATM   16  C16 UNK   900      23.335 -39.021 -69.515  1.00  0.00    -0.018 C 
HETATM   17  C17 UNK   900      23.768 -38.373 -70.614  1.00  0.00    -0.029 C 
ENDROOT
BRANCH  10  18
HETATM   18  C15 UNK   900      22.328 -38.461 -65.036  1.00  0.00     0.014 C 
HETATM   19  C18 UNK   900      22.756 -39.796 -65.652  1.00  0.00     0.015 C 
HETATM   20  C19 UNK   900      20.982 -38.016 -65.611  1.00  0.00     0.015 C 
ENDBRANCH  10  18
BRANCH   9  21
HETATM   21  O2  UNK   900      26.014 -35.564 -63.835  1.00  0.00    -0.387 OA
HETATM   22  H20 UNK   900      26.564 -34.835 -64.169  1.00  0.00     0.210 HD
ENDBRANCH   9  21
BRANCH   8  23
HETATM   23  O1  UNK   900      22.534 -34.801 -70.637  1.00  0.00    -0.392 OA
HETATM   24  H19 UNK   900      21.751 -34.853 -71.209  1.00  0.00     0.210 HD
ENDBRANCH   8  23
BRANCH  15  25
HETATM   25  O3  UNK   900      23.447 -36.617 -72.204  1.00  0.00    -0.389 OA
HETATM   26  H29 UNK   900      22.849 -37.323 -72.507  1.00  0.00     0.210 HD
ENDBRANCH  15  25
BRANCH  17  27
HETATM   27  C20 UNK   900      24.321 -39.197 -71.756  1.00  0.00     0.200 C 
BRANCH  27  28
HETATM   28  O5  UNK   900      23.373 -39.250 -72.802  1.00  0.00    -0.397 OA
HETATM   29  H30 UNK   900      23.709 -39.878 -73.464  1.00  0.00     0.209 HD
ENDBRANCH  27  28
ENDBRANCH  17  27
TORSDOF 6
ENDMDL
MODEL 2
REMARK VINA RESULT:     -10.0      1.960      3.518
REMARK  6 active torsions:
REMARK  status: ('A' for Active; 'I' for Inactive)
REMARK    1  A    between atoms: O1_1  and  C7_12 
REMARK    2  A    between atoms: O2_2  and  C8_13 
REMARK    3  A    between atoms: O3_3  and  C14_19 
REMARK    4  A    between atoms: O5_5  and  C20_25 
REMARK    5  A    between atoms: C9_14  and  C15_20 
REMARK    6  A    between atoms: C17_22  and  C20_25 
ROOT
HETATM    1  O4  UNK   900      23.463 -33.801 -65.311  1.00  0.00    -0.290 OA
HETATM    2  C1  UNK   900      21.461 -37.918 -68.745  1.00  0.00    -0.008 C 
HETATM    3  C2  UNK   900      21.889 -34.911 -68.320  1.00  0.00     0.014 C 
HETATM    4  C3  UNK   900      22.876 -37.256 -68.725  1.00  0.00     0.030 C 
HETATM    5  C4  UNK   900      22.843 -36.011 -67.846  1.00  0.00    -0.053 C 
HETATM    6  C5  UNK   900      20.446 -36.844 -69.265  1.00  0.00     0.014 C 
HETATM    7  C6  UNK   900      20.476 -35.521 -68.478  1.00  0.00     0.017 C 
HETATM    8  C7  UNK   900      21.414 -39.207 -69.635  1.00  0.00     0.160 C 
HETATM    9  C8  UNK   900      21.907 -33.892 -67.157  1.00  0.00     0.205 C 
HETATM   10  C9  UNK   900      23.472 -35.744 -66.690  1.00  0.00    -0.003 C 
HETATM   11  C10 UNK   900      24.023 -38.256 -68.502  1.00  0.00     0.037 C 
HETATM   12  C11 UNK   900      21.023 -38.350 -67.314  1.00  0.00     0.018 C 
HETATM   13  C12 UNK   900      22.353 -34.283 -69.649  1.00  0.00     0.023 C 
HETATM   14  C13 UNK   900      23.005 -34.407 -66.269  1.00  0.00     0.185 C 
HETATM   15  C14 UNK   900      22.205 -39.166 -70.960  1.00  0.00     0.178 C 
HETATM   16  C16 UNK   900      24.450 -38.983 -69.748  1.00  0.00    -0.018 C 
HETATM   17  C17 UNK   900      23.716 -39.306 -70.831  1.00  0.00    -0.029 C 
ENDROOT
BRANCH  10  18
HETATM   18  C15 UNK   900      24.393 -36.527 -65.830  1.00  0.00     0.014 C 
HETATM   19  C18 UNK   900      23.899 -36.567 -64.380  1.00  0.00     0.015 C 
HETATM   20  C19 UNK   900      25.812 -35.958 -65.893  1.00  0.00     0.015 C 
ENDBRANCH  10  18
BRANCH   9  21
HETATM   21  O2  UNK   900      22.193 -32.557 -67.510  1.00  0.00    -0.387 OA
HETATM   22  H20 UNK   900      23.052 -32.548 -67.963  1.00  0.00     0.210 HD
ENDBRANCH   9  21
BRANCH   8  23
HETATM   23  O1  UNK   900      20.046 -39.514 -69.952  1.00  0.00    -0.392 OA
HETATM   24  H19 UNK   900      19.896 -39.280 -70.882  1.00  0.00     0.210 HD
ENDBRANCH   8  23
BRANCH  15  25
HETATM   25  O3  UNK   900      21.730 -40.286 -71.730  1.00  0.00    -0.389 OA
HETATM   26  H29 UNK   900      21.561 -39.976 -72.637  1.00  0.00     0.210 HD
ENDBRANCH  15  25
BRANCH  17  27
HETATM   27  C20 UNK   900      24.438 -39.852 -72.044  1.00  0.00     0.200 C 
BRANCH  27  28
HETATM   28  O5  UNK   900      24.820 -38.784 -72.885  1.00  0.00    -0.397 OA
HETATM   29  H30 UNK   900      25.312 -38.147 -72.338  1.00  0.00     0.209 HD
ENDBRANCH  27  28
ENDBRANCH  17  27
TORSDOF 6
ENDMDL
MODEL 3
REMARK VINA RESULT:      -9.1      2.006      2.827
REMARK  6 active torsions:
REMARK  status: ('A' for Active; 'I' for Inactive)
REMARK    1  A    between atoms: O1_1  and  C7_12 
REMARK    2  A    between atoms: O2_2  and  C8_13 
REMARK    3  A    between atoms: O3_3  and  C14_19 
REMARK    4  A    between atoms: O5_5  and  C20_25 
REMARK    5  A    between atoms: C9_14  and  C15_20 
REMARK    6  A    between atoms: C17_22  and  C20_25 
ROOT
HETATM    1  O4  UNK   900      24.226 -34.100 -65.115  1.00  0.00    -0.290 OA
HETATM    2  C1  UNK   900      22.358 -37.406 -69.397  1.00  0.00    -0.008 C 
HETATM    3  C2  UNK   900      24.598 -35.600 -68.336  1.00  0.00     0.014 C 
HETATM    4  C3  UNK   900      23.254 -37.792 -68.175  1.00  0.00     0.030 C 
HETATM    5  C4  UNK   900      23.732 -36.524 -67.476  1.00  0.00    -0.053 C 
HETATM    6  C5  UNK   900      23.213 -36.489 -70.336  1.00  0.00     0.014 C 
HETATM    7  C6  UNK   900      23.821 -35.263 -69.631  1.00  0.00     0.017 C 
HETATM    8  C7  UNK   900      21.829 -38.660 -70.172  1.00  0.00     0.160 C 
HETATM    9  C8  UNK   900      24.756 -34.335 -67.460  1.00  0.00     0.205 C 
HETATM   10  C9  UNK   900      23.471 -36.057 -66.244  1.00  0.00    -0.003 C 
HETATM   11  C10 UNK   900      22.658 -38.907 -67.300  1.00  0.00     0.037 C 
HETATM   12  C11 UNK   900      21.103 -36.603 -68.942  1.00  0.00     0.018 C 
HETATM   13  C12 UNK   900      25.957 -36.242 -68.678  1.00  0.00     0.023 C 
HETATM   14  C13 UNK   900      24.158 -34.753 -66.146  1.00  0.00     0.185 C 
HETATM   15  C14 UNK   900      22.815 -39.836 -70.348  1.00  0.00     0.178 C 
HETATM   16  C16 UNK   900      22.898 -40.293 -67.833  1.00  0.00    -0.018 C 
HETATM   17  C17 UNK   900      23.046 -40.694 -69.111  1.00  0.00    -0.029 C 
ENDROOT
BRANCH  10  18
HETATM   18  C15 UNK   900      22.629 -36.553 -65.127  1.00  0.00     0.014 C 
HETATM   19  C18 UNK   900      23.286 -37.744 -64.424  1.00  0.00     0.015 C 
HETATM   20  C19 UNK   900      21.234 -36.932 -65.625  1.00  0.00     0.015 C 
ENDBRANCH  10  18
BRANCH   9  21
HETATM   21  O2  UNK   900      26.078 -33.896 -67.242  1.00  0.00    -0.387 OA
HETATM   22  H20 UNK   900      26.596 -34.111 -68.036  1.00  0.00     0.210 HD
ENDBRANCH   9  21
BRANCH   8  23
HETATM   23  O1  UNK   900      21.390 -38.259 -71.480  1.00  0.00    -0.392 OA
HETATM   24  H19 UNK   900      21.111 -39.056 -71.959  1.00  0.00     0.210 HD
ENDBRANCH   8  23
BRANCH  15  25
HETATM   25  O3  UNK   900      22.234 -40.680 -71.360  1.00  0.00    -0.389 OA
HETATM   26  H29 UNK   900      22.612 -41.572 -71.260  1.00  0.00     0.210 HD
ENDBRANCH  15  25
BRANCH  17  27
HETATM   27  C20 UNK   900      23.489 -42.118 -69.365  1.00  0.00     0.200 C 
BRANCH  27  28
HETATM   28  O5  UNK   900      22.354 -42.945 -69.515  1.00  0.00    -0.397 OA
HETATM   29  H30 UNK   900      21.866 -42.627 -70.295  1.00  0.00     0.209 HD
ENDBRANCH  27  28
ENDBRANCH  17  27
TORSDOF 6
ENDMDL
