MODEL 1
REMARK VINA RESULT:      -7.1      0.000      0.000
REMARK  3 active torsions:
REMARK  status: ('A' for Active; 'I' for Inactive)
REMARK    1  A    between atoms: O4_4  and  C14_20 
REMARK    2  A    between atoms: C1_7  and  C3_9 
REMARK    3  A    between atoms: C10_16  and  C14_20 
ROOT
HETATM    1  O1  UNK   900      30.862 -43.017 -65.900  1.00  0.00    -0.274 OA
HETATM    2  O2  UNK   900      31.826 -43.695 -63.128  1.00  0.00    -0.287 OA
HETATM    3  O3  UNK   900      30.700 -40.853 -66.663  1.00  0.00    -0.260 OA
HETATM    4  N1  UNK   900      31.920 -45.129 -66.277  1.00  0.00    -0.357 N 
HETATM    5  C3  UNK   900      31.793 -45.876 -64.129  1.00  0.00     0.013 A 
HETATM    6  C4  UNK   900      31.941 -43.872 -65.573  1.00  0.00     0.229 A 
HETATM    7  C6  UNK   900      31.856 -44.385 -64.135  1.00  0.00     0.217 A 
HETATM    8  C8  UNK   900      31.833 -46.194 -65.429  1.00  0.00     0.098 A 
HETATM    9  C11 UNK   900      33.154 -43.087 -65.843  1.00  0.00     0.055 A 
HETATM   10  C12 UNK   900      32.834 -41.869 -66.275  1.00  0.00     0.015 A 
HETATM   11  C13 UNK   900      31.364 -41.814 -66.315  1.00  0.00     0.291 A 
HETATM   12  C15 UNK   900      33.706 -40.741 -66.664  1.00  0.00     0.054 C 
HETATM   13  H9  UNK   900      31.918 -45.234 -67.282  1.00  0.00     0.162 HD
ENDROOT
BRANCH   5  14
HETATM   14  C1  UNK   900      31.699 -46.727 -62.898  1.00  0.00     0.027 C 
HETATM   15  C2  UNK   900      30.415 -46.427 -62.112  1.00  0.00     0.014 C 
HETATM   16  C7  UNK   900      30.292 -47.335 -60.884  1.00  0.00     0.046 C 
HETATM   17  C10 UNK   900      31.580 -47.469 -60.131  1.00  0.00     0.012 C 
HETATM   18  C9  UNK   900      32.772 -47.097 -60.620  1.00  0.00    -0.012 C 
HETATM   19  C5  UNK   900      32.938 -46.532 -62.003  1.00  0.00     0.037 C 
BRANCH  17  20
HETATM   20  C14 UNK   900      31.542 -48.016 -58.773  1.00  0.00     0.171 C 
HETATM   21  O5  UNK   900      30.830 -48.938 -58.420  1.00  0.00    -0.646 OA
BRANCH  20  22
HETATM   22  O4  UNK   900      32.409 -47.341 -57.990  1.00  0.00    -0.773 OA
HETATM   23  H15 UNK   900      31.972 -46.613 -57.497  1.00  0.00     0.167 HD
ENDBRANCH  20  22
ENDBRANCH  17  20
ENDBRANCH   5  14
TORSDOF 3
ENDMDL
MODEL 2
REMARK VINA RESULT:      -6.1     28.416     31.553
REMARK  3 active torsions:
REMARK  status: ('A' for Active; 'I' for Inactive)
REMARK    1  A    between atoms: O4_4  and  C14_20 
REMARK    2  A    between atoms: C1_7  and  C3_9 
REMARK    3  A    between atoms: C10_16  and  C14_20 
ROOT
HETATM    1  O1  UNK   900      10.233 -23.915 -80.114  1.00  0.00    -0.274 OA
HETATM    2  O2  UNK   900      11.109 -25.344 -77.613  1.00  0.00    -0.287 OA
HETATM    3  O3  UNK   900      10.358 -21.630 -80.346  1.00  0.00    -0.260 OA
HETATM    4  N1  UNK   900      10.997 -25.997 -81.010  1.00  0.00    -0.357 N 
HETATM    5  C3  UNK   900      10.781 -27.206 -79.092  1.00  0.00     0.013 A 
HETATM    6  C4  UNK   900      11.189 -24.955 -80.034  1.00  0.00     0.229 A 
HETATM    7  C6  UNK   900      11.043 -25.776 -78.753  1.00  0.00     0.217 A 
HETATM    8  C8  UNK   900      10.772 -27.211 -80.431  1.00  0.00     0.098 A 
HETATM    9  C11 UNK   900      12.495 -24.291 -80.157  1.00  0.00     0.055 A 
HETATM   10  C12 UNK   900      12.339 -22.974 -80.282  1.00  0.00     0.015 A 
HETATM   11  C13 UNK   900      10.889 -22.723 -80.255  1.00  0.00     0.291 A 
HETATM   12  C15 UNK   900      13.353 -21.909 -80.427  1.00  0.00     0.054 C 
HETATM   13  H9  UNK   900      10.977 -25.861 -82.011  1.00  0.00     0.162 HD
ENDROOT
BRANCH   5  14
HETATM   14  C1  UNK   900      10.579 -28.303 -78.091  1.00  0.00     0.027 C 
HETATM   15  C2  UNK   900       9.433 -27.971 -77.125  1.00  0.00     0.014 C 
HETATM   16  C7  UNK   900       9.190 -29.116 -76.136  1.00  0.00     0.046 C 
HETATM   17  C10 UNK   900      10.461 -29.676 -75.576  1.00  0.00     0.012 C 
HETATM   18  C9  UNK   900      11.676 -29.428 -76.088  1.00  0.00    -0.012 C 
HETATM   19  C5  UNK   900      11.879 -28.578 -77.310  1.00  0.00     0.037 C 
BRANCH  17  20
HETATM   20  C14 UNK   900      10.386 -30.527 -74.386  1.00  0.00     0.171 C 
HETATM   21  O5  UNK   900       9.759 -30.252 -73.380  1.00  0.00    -0.646 OA
BRANCH  20  22
HETATM   22  O4  UNK   900      11.112 -31.647 -74.585  1.00  0.00    -0.773 OA
HETATM   23  H15 UNK   900      11.462 -32.013 -73.745  1.00  0.00     0.167 HD
ENDBRANCH  20  22
ENDBRANCH  17  20
ENDBRANCH   5  14
TORSDOF 3
ENDMDL
MODEL 3
REMARK VINA RESULT:      -5.6     26.555     27.709
REMARK  3 active torsions:
REMARK  status: ('A' for Active; 'I' for Inactive)
REMARK    1  A    between atoms: O4_4  and  C14_20 
REMARK    2  A    between atoms: C1_7  and  C3_9 
REMARK    3  A    between atoms: C10_16  and  C14_20 
ROOT
HETATM    1  O1  UNK   900       4.814 -44.608 -75.329  1.00  0.00    -0.274 OA
HETATM    2  O2  UNK   900       7.277 -46.279 -75.794  1.00  0.00    -0.287 OA
HETATM    3  O3  UNK   900       4.071 -43.046 -76.846  1.00  0.00    -0.260 OA
HETATM    4  N1  UNK   900       4.231 -46.626 -74.185  1.00  0.00    -0.357 N 
HETATM    5  C3  UNK   900       6.360 -47.373 -73.864  1.00  0.00     0.013 A 
HETATM    6  C4  UNK   900       4.883 -46.021 -75.319  1.00  0.00     0.229 A 
HETATM    7  C6  UNK   900       6.307 -46.529 -75.094  1.00  0.00     0.217 A 
HETATM    8  C8  UNK   900       5.096 -47.353 -73.420  1.00  0.00     0.098 A 
HETATM    9  C11 UNK   900       4.307 -46.447 -76.603  1.00  0.00     0.055 A 
HETATM   10  C12 UNK   900       3.942 -45.389 -77.324  1.00  0.00     0.015 A 
HETATM   11  C13 UNK   900       4.264 -44.203 -76.514  1.00  0.00     0.291 A 
HETATM   12  C15 UNK   900       3.328 -45.322 -78.667  1.00  0.00     0.054 C 
HETATM   13  H9  UNK   900       3.260 -46.502 -73.936  1.00  0.00     0.162 HD
ENDROOT
BRANCH   5  14
HETATM   14  C1  UNK   900       7.592 -48.037 -73.329  1.00  0.00     0.027 C 
HETATM   15  C2  UNK   900       7.890 -49.342 -74.080  1.00  0.00     0.014 C 
HETATM   16  C7  UNK   900       9.181 -49.993 -73.571  1.00  0.00     0.046 C 
HETATM   17  C10 UNK   900       9.283 -49.986 -72.077  1.00  0.00     0.012 C 
HETATM   18  C9  UNK   900       8.503 -49.240 -71.280  1.00  0.00    -0.012 C 
HETATM   19  C5  UNK   900       7.459 -48.303 -71.817  1.00  0.00     0.037 C 
BRANCH  17  20
HETATM   20  C14 UNK   900      10.273 -50.856 -71.439  1.00  0.00     0.171 C 
HETATM   21  O5  UNK   900      11.420 -50.530 -71.191  1.00  0.00    -0.646 OA
BRANCH  20  22
HETATM   22  O4  UNK   900       9.717 -52.057 -71.177  1.00  0.00    -0.773 OA
HETATM   23  H15 UNK   900       9.025 -52.000 -70.484  1.00  0.00     0.167 HD
ENDBRANCH  20  22
ENDBRANCH  17  20
ENDBRANCH   5  14
TORSDOF 3
ENDMDL
MODEL 4
REMARK VINA RESULT:      -5.6     26.246     27.374
REMARK  3 active torsions:
REMARK  status: ('A' for Active; 'I' for Inactive)
REMARK    1  A    between atoms: O4_4  and  C14_20 
REMARK    2  A    between atoms: C1_7  and  C3_9 
REMARK    3  A    between atoms: C10_16  and  C14_20 
ROOT
HETATM    1  O1  UNK   900       3.742 -45.504 -73.591  1.00  0.00    -0.274 OA
HETATM    2  O2  UNK   900       6.578 -45.402 -72.582  1.00  0.00    -0.287 OA
HETATM    3  O3  UNK   900       2.263 -43.765 -73.313  1.00  0.00    -0.260 OA
HETATM    4  N1  UNK   900       4.866 -46.849 -75.220  1.00  0.00    -0.357 N 
HETATM    5  C3  UNK   900       6.659 -47.390 -73.924  1.00  0.00     0.013 A 
HETATM    6  C4  UNK   900       4.914 -45.692 -74.362  1.00  0.00     0.229 A 
HETATM    7  C6  UNK   900       6.119 -46.065 -73.499  1.00  0.00     0.217 A 
HETATM    8  C8  UNK   900       5.848 -47.749 -74.927  1.00  0.00     0.098 A 
HETATM    9  C11 UNK   900       5.094 -44.437 -75.106  1.00  0.00     0.055 A 
HETATM   10  C12 UNK   900       4.131 -43.571 -74.798  1.00  0.00     0.015 A 
HETATM   11  C13 UNK   900       3.258 -44.247 -73.826  1.00  0.00     0.291 A 
HETATM   12  C15 UNK   900       3.902 -42.194 -75.287  1.00  0.00     0.054 C 
HETATM   13  H9  UNK   900       4.167 -47.020 -75.929  1.00  0.00     0.162 HD
ENDROOT
BRANCH   5  14
HETATM   14  C1  UNK   900       7.837 -48.078 -73.302  1.00  0.00     0.027 C 
HETATM   15  C2  UNK   900       8.254 -49.312 -74.115  1.00  0.00     0.014 C 
HETATM   16  C7  UNK   900       9.491 -49.983 -73.510  1.00  0.00     0.046 C 
HETATM   17  C10 UNK   900       9.417 -50.098 -72.018  1.00  0.00     0.012 C 
HETATM   18  C9  UNK   900       8.531 -49.433 -71.262  1.00  0.00    -0.012 C 
HETATM   19  C5  UNK   900       7.533 -48.471 -71.843  1.00  0.00     0.037 C 
BRANCH  17  20
HETATM   20  C14 UNK   900      10.347 -51.003 -71.340  1.00  0.00     0.171 C 
HETATM   21  O5  UNK   900      11.486 -50.713 -71.024  1.00  0.00    -0.646 OA
BRANCH  20  22
HETATM   22  O4  UNK   900       9.745 -52.192 -71.126  1.00  0.00    -0.773 OA
HETATM   23  H15 UNK   900       9.307 -52.231 -70.249  1.00  0.00     0.167 HD
ENDBRANCH  20  22
ENDBRANCH  17  20
ENDBRANCH   5  14
TORSDOF 3
ENDMDL
MODEL 5
REMARK VINA RESULT:      -5.6     26.578     27.637
REMARK  3 active torsions:
REMARK  status: ('A' for Active; 'I' for Inactive)
REMARK    1  A    between atoms: O4_4  and  C14_20 
REMARK    2  A    between atoms: C1_7  and  C3_9 
REMARK    3  A    between atoms: C10_16  and  C14_20 
ROOT
HETATM    1  O1  UNK   900       5.287 -41.771 -66.520  1.00  0.00    -0.274 OA
HETATM    2  O2  UNK   900       2.945 -42.764 -64.909  1.00  0.00    -0.287 OA
HETATM    3  O3  UNK   900       5.035 -40.569 -68.465  1.00  0.00    -0.260 OA
HETATM    4  N1  UNK   900       6.183 -41.701 -64.303  1.00  0.00    -0.357 N 
HETATM    5  C3  UNK   900       4.747 -43.216 -63.390  1.00  0.00     0.013 A 
HETATM    6  C4  UNK   900       5.037 -41.504 -65.153  1.00  0.00     0.229 A 
HETATM    7  C6  UNK   900       4.081 -42.524 -64.532  1.00  0.00     0.217 A 
HETATM    8  C8  UNK   900       5.964 -42.658 -63.355  1.00  0.00     0.098 A 
HETATM    9  C11 UNK   900       4.526 -40.126 -65.114  1.00  0.00     0.055 A 
HETATM   10  C12 UNK   900       4.461 -39.618 -66.343  1.00  0.00     0.015 A 
HETATM   11  C13 UNK   900       4.947 -40.668 -67.253  1.00  0.00     0.291 A 
HETATM   12  C15 UNK   900       4.011 -38.285 -66.796  1.00  0.00     0.054 C 
HETATM   13  H9  UNK   900       7.072 -41.234 -64.407  1.00  0.00     0.162 HD
ENDROOT
BRANCH   5  14
HETATM   14  C1  UNK   900       4.117 -44.282 -62.545  1.00  0.00     0.027 C 
HETATM   15  C2  UNK   900       3.404 -43.676 -61.327  1.00  0.00     0.014 C 
HETATM   16  C7  UNK   900       2.713 -44.760 -60.493  1.00  0.00     0.046 C 
HETATM   17  C10 UNK   900       3.569 -45.972 -60.294  1.00  0.00     0.012 C 
HETATM   18  C9  UNK   900       4.681 -46.224 -61.001  1.00  0.00    -0.012 C 
HETATM   19  C5  UNK   900       5.166 -45.317 -62.097  1.00  0.00     0.037 C 
BRANCH  17  20
HETATM   20  C14 UNK   900       3.191 -46.933 -59.256  1.00  0.00     0.171 C 
HETATM   21  O5  UNK   900       2.045 -47.166 -58.916  1.00  0.00    -0.646 OA
BRANCH  20  22
HETATM   22  O4  UNK   900       4.300 -47.508 -58.746  1.00  0.00    -0.773 OA
HETATM   23  H15 UNK   900       4.571 -48.302 -59.255  1.00  0.00     0.167 HD
ENDBRANCH  20  22
ENDBRANCH  17  20
ENDBRANCH   5  14
TORSDOF 3
ENDMDL
MODEL 6
REMARK VINA RESULT:      -5.5     12.658     14.628
REMARK  3 active torsions:
REMARK  status: ('A' for Active; 'I' for Inactive)
REMARK    1  A    between atoms: O4_4  and  C14_20 
REMARK    2  A    between atoms: C1_7  and  C3_9 
REMARK    3  A    between atoms: C10_16  and  C14_20 
ROOT
HETATM    1  O1  UNK   900      37.626 -28.720 -59.506  1.00  0.00    -0.274 OA
HETATM    2  O2  UNK   900      37.944 -31.713 -59.627  1.00  0.00    -0.287 OA
HETATM    3  O3  UNK   900      39.242 -27.270 -60.265  1.00  0.00    -0.260 OA
HETATM    4  N1  UNK   900      35.357 -29.420 -59.804  1.00  0.00    -0.357 N 
HETATM    5  C3  UNK   900      35.629 -31.540 -59.017  1.00  0.00     0.013 A 
HETATM    6  C4  UNK   900      36.744 -29.633 -60.132  1.00  0.00     0.229 A 
HETATM    7  C6  UNK   900      36.914 -31.057 -59.602  1.00  0.00     0.217 A 
HETATM    8  C8  UNK   900      34.800 -30.502 -59.188  1.00  0.00     0.098 A 
HETATM    9  C11 UNK   900      37.015 -29.509 -61.572  1.00  0.00     0.055 A 
HETATM   10  C12 UNK   900      37.980 -28.619 -61.789  1.00  0.00     0.015 A 
HETATM   11  C13 UNK   900      38.380 -28.107 -60.469  1.00  0.00     0.291 A 
HETATM   12  C15 UNK   900      38.587 -28.169 -63.060  1.00  0.00     0.054 C 
HETATM   13  H9  UNK   900      34.848 -28.560 -59.955  1.00  0.00     0.162 HD
ENDROOT
BRANCH   5  14
HETATM   14  C1  UNK   900      35.420 -32.890 -58.399  1.00  0.00     0.027 C 
HETATM   15  C2  UNK   900      36.013 -34.001 -59.277  1.00  0.00     0.014 C 
HETATM   16  C7  UNK   900      35.848 -35.375 -58.619  1.00  0.00     0.046 C 
HETATM   17  C10 UNK   900      34.486 -35.576 -58.030  1.00  0.00     0.012 C 
HETATM   18  C9  UNK   900      33.608 -34.582 -57.825  1.00  0.00    -0.012 C 
HETATM   19  C5  UNK   900      33.923 -33.147 -58.140  1.00  0.00     0.037 C 
BRANCH  17  20
HETATM   20  C14 UNK   900      34.071 -36.935 -57.675  1.00  0.00     0.171 C 
HETATM   21  O5  UNK   900      33.106 -37.203 -56.982  1.00  0.00    -0.646 OA
BRANCH  20  22
HETATM   22  O4  UNK   900      34.918 -37.826 -58.231  1.00  0.00    -0.773 OA
HETATM   23  H15 UNK   900      35.522 -38.223 -57.568  1.00  0.00     0.167 HD
ENDBRANCH  20  22
ENDBRANCH  17  20
ENDBRANCH   5  14
TORSDOF 3
ENDMDL
MODEL 7
REMARK VINA RESULT:      -5.4     11.005     14.302
REMARK  3 active torsions:
REMARK  status: ('A' for Active; 'I' for Inactive)
REMARK    1  A    between atoms: O4_4  and  C14_20 
REMARK    2  A    between atoms: C1_7  and  C3_9 
REMARK    3  A    between atoms: C10_16  and  C14_20 
ROOT
HETATM    1  O1  UNK   900      37.654 -45.535 -74.495  1.00  0.00    -0.274 OA
HETATM    2  O2  UNK   900      38.957 -44.133 -72.169  1.00  0.00    -0.287 OA
HETATM    3  O3  UNK   900      36.861 -47.690 -74.358  1.00  0.00    -0.260 OA
HETATM    4  N1  UNK   900      37.027 -43.263 -74.908  1.00  0.00    -0.357 N 
HETATM    5  C3  UNK   900      38.703 -42.303 -73.701  1.00  0.00     0.013 A 
HETATM    6  C4  UNK   900      37.258 -44.298 -73.932  1.00  0.00     0.229 A 
HETATM    7  C6  UNK   900      38.382 -43.643 -73.129  1.00  0.00     0.217 A 
HETATM    8  C8  UNK   900      37.855 -42.194 -74.732  1.00  0.00     0.098 A 
HETATM    9  C11 UNK   900      36.065 -44.601 -73.128  1.00  0.00     0.055 A 
HETATM   10  C12 UNK   900      35.781 -45.901 -73.188  1.00  0.00     0.015 A 
HETATM   11  C13 UNK   900      36.796 -46.509 -74.063  1.00  0.00     0.291 A 
HETATM   12  C15 UNK   900      34.689 -46.663 -72.547  1.00  0.00     0.054 C 
HETATM   13  H9  UNK   900      36.370 -43.320 -75.673  1.00  0.00     0.162 HD
ENDROOT
BRANCH   5  14
HETATM   14  C1  UNK   900      39.755 -41.374 -73.175  1.00  0.00     0.027 C 
HETATM   15  C2  UNK   900      39.303 -39.909 -73.272  1.00  0.00     0.014 C 
HETATM   16  C7  UNK   900      40.355 -38.963 -72.684  1.00  0.00     0.046 C 
HETATM   17  C10 UNK   900      41.749 -39.313 -73.106  1.00  0.00     0.012 C 
HETATM   18  C9  UNK   900      42.085 -40.480 -73.675  1.00  0.00    -0.012 C 
HETATM   19  C5  UNK   900      41.088 -41.577 -73.921  1.00  0.00     0.037 C 
BRANCH  17  20
HETATM   20  C14 UNK   900      42.808 -38.322 -72.908  1.00  0.00     0.171 C 
HETATM   21  O5  UNK   900      43.984 -38.507 -73.166  1.00  0.00    -0.646 OA
BRANCH  20  22
HETATM   22  O4  UNK   900      42.278 -37.189 -72.401  1.00  0.00    -0.773 OA
HETATM   23  H15 UNK   900      41.332 -37.086 -72.638  1.00  0.00     0.167 HD
ENDBRANCH  20  22
ENDBRANCH  17  20
ENDBRANCH   5  14
TORSDOF 3
ENDMDL
MODEL 8
REMARK VINA RESULT:      -5.3     25.699     26.843
REMARK  3 active torsions:
REMARK  status: ('A' for Active; 'I' for Inactive)
REMARK    1  A    between atoms: O4_4  and  C14_20 
REMARK    2  A    between atoms: C1_7  and  C3_9 
REMARK    3  A    between atoms: C10_16  and  C14_20 
ROOT
HETATM    1  O1  UNK   900       4.458 -46.032 -71.988  1.00  0.00    -0.274 OA
HETATM    2  O2  UNK   900       6.491 -47.663 -70.478  1.00  0.00    -0.287 OA
HETATM    3  O3  UNK   900       2.920 -44.685 -70.935  1.00  0.00    -0.260 OA
HETATM    4  N1  UNK   900       6.285 -46.046 -73.532  1.00  0.00    -0.357 N 
HETATM    5  C3  UNK   900       7.301 -47.918 -72.723  1.00  0.00     0.013 A 
HETATM    6  C4  UNK   900       5.863 -45.986 -72.156  1.00  0.00     0.229 A 
HETATM    7  C6  UNK   900       6.550 -47.244 -71.624  1.00  0.00     0.217 A 
HETATM    8  C8  UNK   900       7.070 -47.133 -73.784  1.00  0.00     0.098 A 
HETATM    9  C11 UNK   900       6.294 -44.754 -71.479  1.00  0.00     0.055 A 
HETATM   10  C12 UNK   900       5.249 -44.128 -70.941  1.00  0.00     0.015 A 
HETATM   11  C13 UNK   900       4.066 -44.942 -71.262  1.00  0.00     0.291 A 
HETATM   12  C15 UNK   900       5.193 -42.869 -70.168  1.00  0.00     0.054 C 
HETATM   13  H9  UNK   900       6.006 -45.399 -74.256  1.00  0.00     0.162 HD
ENDROOT
BRANCH   5  14
HETATM   14  C1  UNK   900       8.093 -49.181 -72.574  1.00  0.00     0.027 C 
HETATM   15  C2  UNK   900       9.280 -49.212 -73.549  1.00  0.00     0.014 C 
HETATM   16  C7  UNK   900      10.122 -50.478 -73.358  1.00  0.00     0.046 C 
HETATM   17  C10 UNK   900       9.286 -51.712 -73.206  1.00  0.00     0.012 C 
HETATM   18  C9  UNK   900       7.968 -51.694 -72.959  1.00  0.00    -0.012 C 
HETATM   19  C5  UNK   900       7.196 -50.418 -72.777  1.00  0.00     0.037 C 
BRANCH  17  20
HETATM   20  C14 UNK   900       9.933 -53.017 -73.355  1.00  0.00     0.171 C 
HETATM   21  O5  UNK   900       9.577 -53.879 -74.137  1.00  0.00    -0.646 OA
BRANCH  20  22
HETATM   22  O4  UNK   900      10.971 -53.108 -72.496  1.00  0.00    -0.773 OA
HETATM   23  H15 UNK   900      10.981 -52.368 -71.852  1.00  0.00     0.167 HD
ENDBRANCH  20  22
ENDBRANCH  17  20
ENDBRANCH   5  14
TORSDOF 3
ENDMDL
MODEL 9
REMARK VINA RESULT:      -5.3     41.320     44.217
REMARK  3 active torsions:
REMARK  status: ('A' for Active; 'I' for Inactive)
REMARK    1  A    between atoms: O4_4  and  C14_20 
REMARK    2  A    between atoms: C1_7  and  C3_9 
REMARK    3  A    between atoms: C10_16  and  C14_20 
ROOT
HETATM    1  O1  UNK   900       7.255 -85.217 -64.676  1.00  0.00    -0.274 OA
HETATM    2  O2  UNK   900       6.112 -82.455 -64.308  1.00  0.00    -0.287 OA
HETATM    3  O3  UNK   900       5.936 -87.094 -64.838  1.00  0.00    -0.260 OA
HETATM    4  N1  UNK   900       8.875 -83.884 -65.825  1.00  0.00    -0.357 N 
HETATM    5  C3  UNK   900       8.408 -81.924 -64.762  1.00  0.00     0.013 A 
HETATM    6  C4  UNK   900       7.486 -84.096 -65.509  1.00  0.00     0.229 A 
HETATM    7  C6  UNK   900       7.183 -82.777 -64.797  1.00  0.00     0.217 A 
HETATM    8  C8  UNK   900       9.326 -82.674 -65.385  1.00  0.00     0.098 A 
HETATM    9  C11 UNK   900       6.656 -84.320 -66.701  1.00  0.00     0.055 A 
HETATM   10  C12 UNK   900       5.978 -85.461 -66.589  1.00  0.00     0.015 A 
HETATM   11  C13 UNK   900       6.355 -86.044 -65.291  1.00  0.00     0.291 A 
HETATM   12  C15 UNK   900       5.024 -86.093 -67.525  1.00  0.00     0.054 C 
HETATM   13  H9  UNK   900       9.480 -84.557 -66.275  1.00  0.00     0.162 HD
ENDROOT
BRANCH   5  14
HETATM   14  C1  UNK   900       8.489 -80.562 -64.141  1.00  0.00     0.027 C 
HETATM   15  C2  UNK   900       7.599 -79.558 -64.887  1.00  0.00     0.014 C 
HETATM   16  C7  UNK   900       7.639 -78.179 -64.219  1.00  0.00     0.046 C 
HETATM   17  C10 UNK   900       9.026 -77.762 -63.834  1.00  0.00     0.012 C 
HETATM   18  C9  UNK   900      10.072 -78.600 -63.792  1.00  0.00    -0.012 C 
HETATM   19  C5  UNK   900       9.947 -80.065 -64.101  1.00  0.00     0.037 C 
BRANCH  17  20
HETATM   20  C14 UNK   900       9.266 -76.356 -63.504  1.00  0.00     0.171 C 
HETATM   21  O5  UNK   900       8.496 -75.446 -63.754  1.00  0.00    -0.646 OA
BRANCH  20  22
HETATM   22  O4  UNK   900      10.461 -76.234 -62.888  1.00  0.00    -0.773 OA
HETATM   23  H15 UNK   900      10.604 -75.330 -62.536  1.00  0.00     0.167 HD
ENDBRANCH  20  22
ENDBRANCH  17  20
ENDBRANCH   5  14
TORSDOF 3
ENDMDL
