MODEL 1
REMARK VINA RESULT:      -6.4      0.000      0.000
REMARK  7 active torsions:
REMARK  status: ('A' for Active; 'I' for Inactive)
REMARK    1  A    between atoms: O2_2  and  C5_11 
REMARK    2  A    between atoms: O2_2  and  C12_18 
REMARK    3  A    between atoms: O4_4  and  C13_19 
REMARK    4  A    between atoms: O5_5  and  C16_22 
REMARK    5  A    between atoms: O6_6  and  C17_23 
REMARK    6  A    between atoms: C9_15  and  C10_16 
REMARK    7  A    between atoms: C10_16  and  C14_20 
ROOT
HETATM    1  O1  UNK   900      38.882 -41.725 -56.706  1.00  0.00    -0.312 OA
HETATM    2  O3  UNK   900      38.269 -40.409 -58.445  1.00  0.00    -0.259 OA
HETATM    3  C1  UNK   900      37.272 -42.380 -55.009  1.00  0.00     0.071 C 
HETATM    4  C2  UNK   900      38.722 -42.022 -55.301  1.00  0.00     0.132 C 
HETATM    5  C3  UNK   900      36.420 -41.234 -55.464  1.00  0.00    -0.034 A 
HETATM    6  C4  UNK   900      36.809 -40.494 -56.588  1.00  0.00     0.080 A 
HETATM    7  C5  UNK   900      36.015 -39.436 -57.043  1.00  0.00     0.095 A 
HETATM    8  C6  UNK   900      35.223 -40.919 -54.811  1.00  0.00     0.044 A 
HETATM    9  C7  UNK   900      38.041 -40.854 -57.328  1.00  0.00     0.297 C 
HETATM   10  C8  UNK   900      39.656 -43.177 -54.966  1.00  0.00     0.040 C 
HETATM   11  C11 UNK   900      34.831 -39.120 -56.376  1.00  0.00     0.074 A 
HETATM   12  C13 UNK   900      34.434 -39.861 -55.264  1.00  0.00     0.069 A 
ENDROOT
BRANCH   7  13
HETATM   13  O2  UNK   900      36.354 -38.676 -58.123  1.00  0.00    -0.306 OA
BRANCH  13  14
HETATM   14  C12 UNK   900      36.198 -37.305 -58.016  1.00  0.00     0.115 A 
HETATM   15  C9  UNK   900      37.147 -36.542 -57.333  1.00  0.00    -0.019 A 
HETATM   16  C15 UNK   900      36.987 -35.161 -57.228  1.00  0.00     0.046 A 
HETATM   17  C17 UNK   900      35.877 -34.542 -57.804  1.00  0.00     0.069 A 
HETATM   18  C18 UNK   900      34.928 -35.303 -58.485  1.00  0.00     0.076 A 
HETATM   19  C16 UNK   900      35.089 -36.685 -58.591  1.00  0.00     0.102 A 
BRANCH  15  20
HETATM   20  C10 UNK   900      38.341 -37.188 -56.711  1.00  0.00     0.041 C 
BRANCH  20  21
HETATM   21  C14 UNK   900      38.193 -37.337 -55.191  1.00  0.00     0.000 C 
HETATM   22  C19 UNK   900      39.122 -38.403 -54.632  1.00  0.00     0.005 C 
ENDBRANCH  20  21
ENDBRANCH  15  20
BRANCH  17  23
HETATM   23  O6  UNK   900      35.721 -33.193 -57.700  1.00  0.00    -0.361 OA
HETATM   24  H20 UNK   900      34.908 -33.007 -57.201  1.00  0.00     0.217 HD
ENDBRANCH  17  23
BRANCH  19  25
HETATM   25  O5  UNK   900      34.155 -37.418 -59.259  1.00  0.00    -0.358 OA
HETATM   26  H19 UNK   900      33.452 -36.824 -59.575  1.00  0.00     0.217 HD
ENDBRANCH  19  25
ENDBRANCH  13  14
ENDBRANCH   7  13
BRANCH  12  27
HETATM   27  O4  UNK   900      33.276 -39.553 -54.620  1.00  0.00    -0.361 OA
HETATM   28  H18 UNK   900      33.404 -39.678 -53.664  1.00  0.00     0.217 HD
ENDBRANCH  12  27
TORSDOF 7
ENDMDL
MODEL 2
REMARK VINA RESULT:      -6.3      2.264      3.844
REMARK  7 active torsions:
REMARK  status: ('A' for Active; 'I' for Inactive)
REMARK    1  A    between atoms: O2_2  and  C5_11 
REMARK    2  A    between atoms: O2_2  and  C12_18 
REMARK    3  A    between atoms: O4_4  and  C13_19 
REMARK    4  A    between atoms: O5_5  and  C16_22 
REMARK    5  A    between atoms: O6_6  and  C17_23 
REMARK    6  A    between atoms: C9_15  and  C10_16 
REMARK    7  A    between atoms: C10_16  and  C14_20 
ROOT
HETATM    1  O1  UNK   900      40.153 -41.087 -55.528  1.00  0.00    -0.312 OA
HETATM    2  O3  UNK   900      38.956 -39.250 -54.960  1.00  0.00    -0.259 OA
HETATM    3  C1  UNK   900      39.832 -42.172 -57.677  1.00  0.00     0.071 C 
HETATM    4  C2  UNK   900      40.159 -42.365 -56.203  1.00  0.00     0.132 C 
HETATM    5  C3  UNK   900      38.508 -41.472 -57.762  1.00  0.00    -0.034 A 
HETATM    6  C4  UNK   900      38.163 -40.537 -56.778  1.00  0.00     0.080 A 
HETATM    7  C5  UNK   900      36.944 -39.856 -56.852  1.00  0.00     0.095 A 
HETATM    8  C6  UNK   900      37.633 -41.706 -58.828  1.00  0.00     0.044 A 
HETATM    9  C7  UNK   900      39.106 -40.232 -55.675  1.00  0.00     0.297 C 
HETATM   10  C8  UNK   900      41.541 -42.977 -56.019  1.00  0.00     0.040 C 
HETATM   11  C11 UNK   900      36.071 -40.108 -57.910  1.00  0.00     0.074 A 
HETATM   12  C13 UNK   900      36.416 -41.030 -58.899  1.00  0.00     0.069 A 
ENDROOT
BRANCH   7  13
HETATM   13  O2  UNK   900      36.553 -38.947 -55.914  1.00  0.00    -0.306 OA
BRANCH  13  14
HETATM   14  C12 UNK   900      35.235 -38.525 -55.940  1.00  0.00     0.115 A 
HETATM   15  C9  UNK   900      34.888 -37.346 -56.603  1.00  0.00    -0.019 A 
HETATM   16  C15 UNK   900      33.560 -36.924 -56.627  1.00  0.00     0.046 A 
HETATM   17  C17 UNK   900      32.577 -37.681 -55.989  1.00  0.00     0.069 A 
HETATM   18  C18 UNK   900      32.921 -38.858 -55.326  1.00  0.00     0.076 A 
HETATM   19  C16 UNK   900      34.251 -39.280 -55.302  1.00  0.00     0.102 A 
BRANCH  15  20
HETATM   20  C10 UNK   900      35.928 -36.525 -57.292  1.00  0.00     0.041 C 
BRANCH  20  21
HETATM   21  C14 UNK   900      35.466 -35.079 -57.520  1.00  0.00     0.000 C 
HETATM   22  C19 UNK   900      36.619 -34.170 -57.914  1.00  0.00     0.005 C 
ENDBRANCH  20  21
ENDBRANCH  15  20
BRANCH  17  23
HETATM   23  O6  UNK   900      31.279 -37.268 -56.012  1.00  0.00    -0.361 OA
HETATM   24  H20 UNK   900      31.005 -37.140 -56.936  1.00  0.00     0.217 HD
ENDBRANCH  17  23
BRANCH  19  25
HETATM   25  O5  UNK   900      34.576 -40.432 -54.651  1.00  0.00    -0.358 OA
HETATM   26  H19 UNK   900      35.179 -40.953 -55.210  1.00  0.00     0.217 HD
ENDBRANCH  19  25
ENDBRANCH  13  14
ENDBRANCH   7  13
BRANCH  12  27
HETATM   27  O4  UNK   900      35.564 -41.267 -59.933  1.00  0.00    -0.361 OA
HETATM   28  H18 UNK   900      34.764 -40.727 -59.812  1.00  0.00     0.217 HD
ENDBRANCH  12  27
TORSDOF 7
ENDMDL
MODEL 3
REMARK VINA RESULT:      -6.1      2.243      3.132
REMARK  7 active torsions:
REMARK  status: ('A' for Active; 'I' for Inactive)
REMARK    1  A    between atoms: O2_2  and  C5_11 
REMARK    2  A    between atoms: O2_2  and  C12_18 
REMARK    3  A    between atoms: O4_4  and  C13_19 
REMARK    4  A    between atoms: O5_5  and  C16_22 
REMARK    5  A    between atoms: O6_6  and  C17_23 
REMARK    6  A    between atoms: C9_15  and  C10_16 
REMARK    7  A    between atoms: C10_16  and  C14_20 
ROOT
HETATM    1  O1  UNK   900      37.463 -40.046 -59.040  1.00  0.00    -0.312 OA
HETATM    2  O3  UNK   900      35.766 -38.831 -59.921  1.00  0.00    -0.259 OA
HETATM    3  C1  UNK   900      37.833 -40.116 -56.641  1.00  0.00     0.071 C 
HETATM    4  C2  UNK   900      38.481 -40.137 -58.018  1.00  0.00     0.132 C 
HETATM    5  C3  UNK   900      37.015 -38.864 -56.540  1.00  0.00    -0.034 A 
HETATM    6  C4  UNK   900      36.381 -38.366 -57.686  1.00  0.00     0.080 A 
HETATM    7  C5  UNK   900      35.594 -37.213 -57.608  1.00  0.00     0.095 A 
HETATM    8  C6  UNK   900      36.840 -38.211 -55.315  1.00  0.00     0.044 A 
HETATM    9  C7  UNK   900      36.505 -39.082 -58.978  1.00  0.00     0.297 C 
HETATM   10  C8  UNK   900      39.251 -41.430 -58.249  1.00  0.00     0.040 C 
HETATM   11  C11 UNK   900      35.439 -36.559 -56.386  1.00  0.00     0.074 A 
HETATM   12  C13 UNK   900      36.059 -37.058 -55.241  1.00  0.00     0.069 A 
ENDROOT
BRANCH   7  13
HETATM   13  O2  UNK   900      34.966 -36.678 -58.694  1.00  0.00    -0.306 OA
BRANCH  13  14
HETATM   14  C12 UNK   900      35.022 -35.305 -58.855  1.00  0.00     0.115 A 
HETATM   15  C9  UNK   900      36.136 -34.713 -59.453  1.00  0.00    -0.019 A 
HETATM   16  C15 UNK   900      36.189 -33.329 -59.614  1.00  0.00     0.046 A 
HETATM   17  C17 UNK   900      35.129 -32.536 -59.177  1.00  0.00     0.069 A 
HETATM   18  C18 UNK   900      34.015 -33.125 -58.579  1.00  0.00     0.076 A 
HETATM   19  C16 UNK   900      33.962 -34.510 -58.418  1.00  0.00     0.102 A 
BRANCH  15  20
HETATM   20  C10 UNK   900      37.281 -35.548 -59.928  1.00  0.00     0.041 C 
BRANCH  20  21
HETATM   21  C14 UNK   900      38.611 -35.121 -59.293  1.00  0.00     0.000 C 
HETATM   22  C19 UNK   900      39.099 -36.130 -58.266  1.00  0.00     0.005 C 
ENDBRANCH  20  21
ENDBRANCH  15  20
BRANCH  17  23
HETATM   23  O6  UNK   900      35.181 -31.184 -59.334  1.00  0.00    -0.361 OA
HETATM   24  H20 UNK   900      35.122 -30.763 -58.461  1.00  0.00     0.217 HD
ENDBRANCH  17  23
BRANCH  19  25
HETATM   25  O5  UNK   900      32.870 -35.075 -57.833  1.00  0.00    -0.358 OA
HETATM   26  H19 UNK   900      33.047 -36.018 -57.674  1.00  0.00     0.217 HD
ENDBRANCH  19  25
ENDBRANCH  13  14
ENDBRANCH   7  13
BRANCH  12  27
HETATM   27  O4  UNK   900      35.899 -36.421 -54.049  1.00  0.00    -0.361 OA
HETATM   28  H18 UNK   900      36.152 -37.027 -53.331  1.00  0.00     0.217 HD
ENDBRANCH  12  27
TORSDOF 7
ENDMDL
MODEL 4
REMARK VINA RESULT:      -5.6     40.525     43.442
REMARK  7 active torsions:
REMARK  status: ('A' for Active; 'I' for Inactive)
REMARK    1  A    between atoms: O2_2  and  C5_11 
REMARK    2  A    between atoms: O2_2  and  C12_18 
REMARK    3  A    between atoms: O4_4  and  C13_19 
REMARK    4  A    between atoms: O5_5  and  C16_22 
REMARK    5  A    between atoms: O6_6  and  C17_23 
REMARK    6  A    between atoms: C9_15  and  C10_16 
REMARK    7  A    between atoms: C10_16  and  C14_20 
ROOT
HETATM    1  O1  UNK   900      10.178 -71.538 -48.413  1.00  0.00    -0.312 OA
HETATM    2  O3  UNK   900       7.958 -71.978 -48.498  1.00  0.00    -0.259 OA
HETATM    3  C1  UNK   900      10.997 -69.251 -48.382  1.00  0.00     0.071 C 
HETATM    4  C2  UNK   900      11.257 -70.678 -48.844  1.00  0.00     0.132 C 
HETATM    5  C3  UNK   900       9.664 -68.833 -48.926  1.00  0.00    -0.034 A 
HETATM    6  C4  UNK   900       8.647 -69.787 -49.057  1.00  0.00     0.080 A 
HETATM    7  C5  UNK   900       7.389 -69.411 -49.539  1.00  0.00     0.095 A 
HETATM    8  C6  UNK   900       9.407 -67.499 -49.264  1.00  0.00     0.044 A 
HETATM    9  C7  UNK   900       8.883 -71.191 -48.644  1.00  0.00     0.297 C 
HETATM   10  C8  UNK   900      12.547 -71.226 -48.249  1.00  0.00     0.040 C 
HETATM   11  C11 UNK   900       7.147 -68.083 -49.889  1.00  0.00     0.074 A 
HETATM   12  C13 UNK   900       8.154 -67.128 -49.749  1.00  0.00     0.069 A 
ENDROOT
BRANCH   7  13
HETATM   13  O2  UNK   900       6.369 -70.302 -49.699  1.00  0.00    -0.306 OA
BRANCH  13  14
HETATM   14  C12 UNK   900       5.681 -70.279 -50.900  1.00  0.00     0.115 A 
HETATM   15  C9  UNK   900       4.415 -69.695 -50.973  1.00  0.00    -0.019 A 
HETATM   16  C15 UNK   900       3.725 -69.674 -52.184  1.00  0.00     0.046 A 
HETATM   17  C17 UNK   900       4.299 -70.239 -53.323  1.00  0.00     0.069 A 
HETATM   18  C18 UNK   900       5.563 -70.823 -53.251  1.00  0.00     0.076 A 
HETATM   19  C16 UNK   900       6.254 -70.844 -52.039  1.00  0.00     0.102 A 
BRANCH  15  20
HETATM   20  C10 UNK   900       3.785 -69.086 -49.763  1.00  0.00     0.041 C 
BRANCH  20  21
HETATM   21  C14 UNK   900       3.490 -67.591 -49.955  1.00  0.00     0.000 C 
HETATM   22  C19 UNK   900       2.079 -67.232 -49.521  1.00  0.00     0.005 C 
ENDBRANCH  20  21
ENDBRANCH  15  20
BRANCH  17  23
HETATM   23  O6  UNK   900       3.625 -70.219 -54.506  1.00  0.00    -0.361 OA
HETATM   24  H20 UNK   900       4.062 -69.595 -55.108  1.00  0.00     0.217 HD
ENDBRANCH  17  23
BRANCH  19  25
HETATM   25  O5  UNK   900       7.488 -71.418 -51.982  1.00  0.00    -0.358 OA
HETATM   26  H19 UNK   900       8.157 -70.758 -52.237  1.00  0.00     0.217 HD
ENDBRANCH  19  25
ENDBRANCH  13  14
ENDBRANCH   7  13
BRANCH  12  27
HETATM   27  O4  UNK   900       7.912 -65.832 -50.085  1.00  0.00    -0.361 OA
HETATM   28  H18 UNK   900       7.126 -65.796 -50.658  1.00  0.00     0.217 HD
ENDBRANCH  12  27
TORSDOF 7
ENDMDL
MODEL 5
REMARK VINA RESULT:      -5.5     33.883     35.932
REMARK  7 active torsions:
REMARK  status: ('A' for Active; 'I' for Inactive)
REMARK    1  A    between atoms: O2_2  and  C5_11 
REMARK    2  A    between atoms: O2_2  and  C12_18 
REMARK    3  A    between atoms: O4_4  and  C13_19 
REMARK    4  A    between atoms: O5_5  and  C16_22 
REMARK    5  A    between atoms: O6_6  and  C17_23 
REMARK    6  A    between atoms: C9_15  and  C10_16 
REMARK    7  A    between atoms: C10_16  and  C14_20 
ROOT
HETATM    1  O1  UNK   900       6.400 -48.937 -74.356  1.00  0.00    -0.312 OA
HETATM    2  O3  UNK   900       6.723 -50.935 -75.371  1.00  0.00    -0.259 OA
HETATM    3  C1  UNK   900       8.066 -48.020 -72.844  1.00  0.00     0.071 C 
HETATM    4  C2  UNK   900       6.582 -48.144 -73.160  1.00  0.00     0.132 C 
HETATM    5  C3  UNK   900       8.622 -49.407 -72.717  1.00  0.00    -0.034 A 
HETATM    6  C4  UNK   900       8.098 -50.431 -73.515  1.00  0.00     0.080 A 
HETATM    7  C5  UNK   900       8.620 -51.726 -73.429  1.00  0.00     0.095 A 
HETATM    8  C6  UNK   900       9.682 -49.684 -71.846  1.00  0.00     0.044 A 
HETATM    9  C7  UNK   900       7.018 -50.141 -74.488  1.00  0.00     0.297 C 
HETATM   10  C8  UNK   900       5.953 -46.781 -73.411  1.00  0.00     0.040 C 
HETATM   11  C11 UNK   900       9.665 -51.996 -72.546  1.00  0.00     0.074 A 
HETATM   12  C13 UNK   900      10.198 -50.976 -71.758  1.00  0.00     0.069 A 
ENDROOT
BRANCH   7  13
HETATM   13  O2  UNK   900       8.138 -52.762 -74.173  1.00  0.00    -0.306 OA
BRANCH  13  14
HETATM   14  C12 UNK   900       9.050 -53.514 -74.893  1.00  0.00     0.115 A 
HETATM   15  C9  UNK   900       9.336 -54.825 -74.511  1.00  0.00    -0.019 A 
HETATM   16  C15 UNK   900      10.256 -55.579 -75.239  1.00  0.00     0.046 A 
HETATM   17  C17 UNK   900      10.891 -55.022 -76.349  1.00  0.00     0.069 A 
HETATM   18  C18 UNK   900      10.607 -53.711 -76.731  1.00  0.00     0.076 A 
HETATM   19  C16 UNK   900       9.686 -52.957 -76.003  1.00  0.00     0.102 A 
BRANCH  15  20
HETATM   20  C10 UNK   900       8.665 -55.439 -73.326  1.00  0.00     0.041 C 
BRANCH  20  21
HETATM   21  C14 UNK   900       8.666 -56.972 -73.389  1.00  0.00     0.000 C 
HETATM   22  C19 UNK   900       7.698 -57.582 -72.388  1.00  0.00     0.005 C 
ENDBRANCH  20  21
ENDBRANCH  15  20
BRANCH  17  23
HETATM   23  O6  UNK   900      11.790 -55.758 -77.059  1.00  0.00    -0.361 OA
HETATM   24  H20 UNK   900      12.208 -56.404 -76.465  1.00  0.00     0.217 HD
ENDBRANCH  17  23
BRANCH  19  25
HETATM   25  O5  UNK   900       9.417 -51.678 -76.386  1.00  0.00    -0.358 OA
HETATM   26  H19 UNK   900       8.457 -51.580 -76.512  1.00  0.00     0.217 HD
ENDBRANCH  19  25
ENDBRANCH  13  14
ENDBRANCH   7  13
BRANCH  12  27
HETATM   27  O4  UNK   900      11.222 -51.243 -70.904  1.00  0.00    -0.361 OA
HETATM   28  H18 UNK   900      10.907 -51.135 -69.990  1.00  0.00     0.217 HD
ENDBRANCH  12  27
TORSDOF 7
ENDMDL
MODEL 6
REMARK VINA RESULT:      -5.5     31.051     33.199
REMARK  7 active torsions:
REMARK  status: ('A' for Active; 'I' for Inactive)
REMARK    1  A    between atoms: O2_2  and  C5_11 
REMARK    2  A    between atoms: O2_2  and  C12_18 
REMARK    3  A    between atoms: O4_4  and  C13_19 
REMARK    4  A    between atoms: O5_5  and  C16_22 
REMARK    5  A    between atoms: O6_6  and  C17_23 
REMARK    6  A    between atoms: C9_15  and  C10_16 
REMARK    7  A    between atoms: C10_16  and  C14_20 
ROOT
HETATM    1  O1  UNK   900       4.631 -46.773 -60.632  1.00  0.00    -0.312 OA
HETATM    2  O3  UNK   900       5.917 -45.726 -62.174  1.00  0.00    -0.259 OA
HETATM    3  C1  UNK   900       2.292 -46.185 -60.348  1.00  0.00     0.071 C 
HETATM    4  C2  UNK   900       3.567 -46.652 -59.661  1.00  0.00     0.132 C 
HETATM    5  C3  UNK   900       2.597 -44.893 -61.045  1.00  0.00    -0.034 A 
HETATM    6  C4  UNK   900       3.871 -44.694 -61.591  1.00  0.00     0.080 A 
HETATM    7  C5  UNK   900       4.168 -43.505 -62.267  1.00  0.00     0.095 A 
HETATM    8  C6  UNK   900       1.618 -43.904 -61.197  1.00  0.00     0.044 A 
HETATM    9  C7  UNK   900       4.899 -45.757 -61.494  1.00  0.00     0.297 C 
HETATM   10  C8  UNK   900       3.378 -48.015 -59.011  1.00  0.00     0.040 C 
HETATM   11  C11 UNK   900       3.191 -42.518 -62.399  1.00  0.00     0.074 A 
HETATM   12  C13 UNK   900       1.918 -42.719 -61.867  1.00  0.00     0.069 A 
ENDROOT
BRANCH   7  13
HETATM   13  O2  UNK   900       5.396 -43.254 -62.804  1.00  0.00    -0.306 OA
BRANCH  13  14
HETATM   14  C12 UNK   900       5.444 -42.824 -64.119  1.00  0.00     0.115 A 
HETATM   15  C9  UNK   900       5.668 -41.477 -64.409  1.00  0.00    -0.019 A 
HETATM   16  C15 UNK   900       5.716 -41.047 -65.734  1.00  0.00     0.046 A 
HETATM   17  C17 UNK   900       5.540 -41.963 -66.771  1.00  0.00     0.069 A 
HETATM   18  C18 UNK   900       5.316 -43.309 -66.483  1.00  0.00     0.076 A 
HETATM   19  C16 UNK   900       5.268 -43.739 -65.157  1.00  0.00     0.102 A 
BRANCH  15  20
HETATM   20  C10 UNK   900       5.859 -40.482 -63.311  1.00  0.00     0.041 C 
BRANCH  20  21
HETATM   21  C14 UNK   900       7.343 -40.200 -63.037  1.00  0.00     0.000 C 
HETATM   22  C19 UNK   900       7.825 -40.881 -61.767  1.00  0.00     0.005 C 
ENDBRANCH  20  21
ENDBRANCH  15  20
BRANCH  17  23
HETATM   23  O6  UNK   900       5.587 -41.543 -68.065  1.00  0.00    -0.361 OA
HETATM   24  H20 UNK   900       4.790 -41.020 -68.256  1.00  0.00     0.217 HD
ENDBRANCH  17  23
BRANCH  19  25
HETATM   25  O5  UNK   900       5.048 -45.056 -64.888  1.00  0.00    -0.358 OA
HETATM   26  H19 UNK   900       4.200 -45.324 -65.283  1.00  0.00     0.217 HD
ENDBRANCH  19  25
ENDBRANCH  13  14
ENDBRANCH   7  13
BRANCH  12  27
HETATM   27  O4  UNK   900       0.966 -41.756 -62.004  1.00  0.00    -0.361 OA
HETATM   28  H18 UNK   900       1.058 -41.116 -61.276  1.00  0.00     0.217 HD
ENDBRANCH  12  27
TORSDOF 7
ENDMDL
MODEL 7
REMARK VINA RESULT:      -5.5     34.098     36.333
REMARK  7 active torsions:
REMARK  status: ('A' for Active; 'I' for Inactive)
REMARK    1  A    between atoms: O2_2  and  C5_11 
REMARK    2  A    between atoms: O2_2  and  C12_18 
REMARK    3  A    between atoms: O4_4  and  C13_19 
REMARK    4  A    between atoms: O5_5  and  C16_22 
REMARK    5  A    between atoms: O6_6  and  C17_23 
REMARK    6  A    between atoms: C9_15  and  C10_16 
REMARK    7  A    between atoms: C10_16  and  C14_20 
ROOT
HETATM    1  O1  UNK   900       5.162 -45.529 -76.866  1.00  0.00    -0.312 OA
HETATM    2  O3  UNK   900       6.772 -47.122 -76.852  1.00  0.00    -0.259 OA
HETATM    3  C1  UNK   900       4.847 -44.055 -74.961  1.00  0.00     0.071 C 
HETATM    4  C2  UNK   900       4.173 -44.803 -76.102  1.00  0.00     0.132 C 
HETATM    5  C3  UNK   900       5.598 -45.059 -74.140  1.00  0.00    -0.034 A 
HETATM    6  C4  UNK   900       6.180 -46.164 -74.772  1.00  0.00     0.080 A 
HETATM    7  C5  UNK   900       6.906 -47.100 -74.027  1.00  0.00     0.095 A 
HETATM    8  C6  UNK   900       5.764 -44.887 -72.761  1.00  0.00     0.044 A 
HETATM    9  C7  UNK   900       6.068 -46.329 -76.241  1.00  0.00     0.297 C 
HETATM   10  C8  UNK   900       3.469 -43.845 -77.053  1.00  0.00     0.040 C 
HETATM   11  C11 UNK   900       7.051 -46.929 -72.650  1.00  0.00     0.074 A 
HETATM   12  C13 UNK   900       6.483 -45.823 -72.018  1.00  0.00     0.069 A 
ENDROOT
BRANCH   7  13
HETATM   13  O2  UNK   900       7.480 -48.200 -74.590  1.00  0.00    -0.306 OA
BRANCH  13  14
HETATM   14  C12 UNK   900       7.145 -49.437 -74.067  1.00  0.00     0.115 A 
HETATM   15  C9  UNK   900       8.082 -50.166 -73.332  1.00  0.00    -0.019 A 
HETATM   16  C15 UNK   900       7.741 -51.411 -72.806  1.00  0.00     0.046 A 
HETATM   17  C17 UNK   900       6.463 -51.930 -73.016  1.00  0.00     0.069 A 
HETATM   18  C18 UNK   900       5.526 -51.204 -73.751  1.00  0.00     0.076 A 
HETATM   19  C16 UNK   900       5.868 -49.957 -74.277  1.00  0.00     0.102 A 
BRANCH  15  20
HETATM   20  C10 UNK   900       9.454 -49.625 -73.097  1.00  0.00     0.041 C 
BRANCH  20  21
HETATM   21  C14 UNK   900       9.819 -49.600 -71.606  1.00  0.00     0.000 C 
HETATM   22  C19 UNK   900      10.858 -50.653 -71.258  1.00  0.00     0.005 C 
ENDBRANCH  20  21
ENDBRANCH  15  20
BRANCH  17  23
HETATM   23  O6  UNK   900       6.130 -53.146 -72.503  1.00  0.00    -0.361 OA
HETATM   24  H20 UNK   900       5.823 -53.030 -71.589  1.00  0.00     0.217 HD
ENDBRANCH  17  23
BRANCH  19  25
HETATM   25  O5  UNK   900       4.944 -49.257 -74.993  1.00  0.00    -0.358 OA
HETATM   26  H19 UNK   900       5.326 -48.399 -75.249  1.00  0.00     0.217 HD
ENDBRANCH  19  25
ENDBRANCH  13  14
ENDBRANCH   7  13
BRANCH  12  27
HETATM   27  O4  UNK   900       6.634 -45.656 -70.676  1.00  0.00    -0.361 OA
HETATM   28  H18 UNK   900       7.349 -46.237 -70.365  1.00  0.00     0.217 HD
ENDBRANCH  12  27
TORSDOF 7
ENDMDL
MODEL 8
REMARK VINA RESULT:      -5.4     40.195     42.551
REMARK  7 active torsions:
REMARK  status: ('A' for Active; 'I' for Inactive)
REMARK    1  A    between atoms: O2_2  and  C5_11 
REMARK    2  A    between atoms: O2_2  and  C12_18 
REMARK    3  A    between atoms: O4_4  and  C13_19 
REMARK    4  A    between atoms: O5_5  and  C16_22 
REMARK    5  A    between atoms: O6_6  and  C17_23 
REMARK    6  A    between atoms: C9_15  and  C10_16 
REMARK    7  A    between atoms: C10_16  and  C14_20 
ROOT
HETATM    1  O1  UNK   900       4.139 -68.307 -62.420  1.00  0.00    -0.312 OA
HETATM    2  O3  UNK   900       3.567 -66.873 -60.763  1.00  0.00    -0.259 OA
HETATM    3  C1  UNK   900       5.812 -67.701 -64.073  1.00  0.00     0.071 C 
HETATM    4  C2  UNK   900       4.522 -68.463 -63.805  1.00  0.00     0.132 C 
HETATM    5  C3  UNK   900       5.585 -66.270 -63.687  1.00  0.00    -0.034 A 
HETATM    6  C4  UNK   900       4.739 -65.977 -62.610  1.00  0.00     0.080 A 
HETATM    7  C5  UNK   900       4.533 -64.650 -62.219  1.00  0.00     0.095 A 
HETATM    8  C6  UNK   900       6.236 -65.228 -64.357  1.00  0.00     0.044 A 
HETATM    9  C7  UNK   900       4.091 -67.072 -61.851  1.00  0.00     0.297 C 
HETATM   10  C8  UNK   900       4.692 -69.952 -64.070  1.00  0.00     0.040 C 
HETATM   11  C11 UNK   900       5.174 -63.617 -62.903  1.00  0.00     0.074 A 
HETATM   12  C13 UNK   900       6.026 -63.906 -63.969  1.00  0.00     0.069 A 
ENDROOT
BRANCH   7  13
HETATM   13  O2  UNK   900       3.710 -64.308 -61.188  1.00  0.00    -0.306 OA
BRANCH  13  14
HETATM   14  C12 UNK   900       2.940 -63.167 -61.332  1.00  0.00     0.115 A 
HETATM   15  C9  UNK   900       1.848 -63.163 -62.201  1.00  0.00    -0.019 A 
HETATM   16  C15 UNK   900       1.075 -62.011 -62.344  1.00  0.00     0.046 A 
HETATM   17  C17 UNK   900       1.393 -60.863 -61.619  1.00  0.00     0.069 A 
HETATM   18  C18 UNK   900       2.485 -60.866 -60.751  1.00  0.00     0.076 A 
HETATM   19  C16 UNK   900       3.259 -62.018 -60.607  1.00  0.00     0.102 A 
BRANCH  15  20
HETATM   20  C10 UNK   900       1.492 -64.383 -62.985  1.00  0.00     0.041 C 
BRANCH  20  21
HETATM   21  C14 UNK   900       0.247 -65.087 -62.427  1.00  0.00     0.000 C 
HETATM   22  C19 UNK   900       0.411 -66.598 -62.408  1.00  0.00     0.005 C 
ENDBRANCH  20  21
ENDBRANCH  15  20
BRANCH  17  23
HETATM   23  O6  UNK   900       0.639 -59.739 -61.759  1.00  0.00    -0.361 OA
HETATM   24  H20 UNK   900       0.266 -59.499 -60.894  1.00  0.00     0.217 HD
ENDBRANCH  17  23
BRANCH  19  25
HETATM   25  O5  UNK   900       4.322 -62.009 -59.757  1.00  0.00    -0.358 OA
HETATM   26  H19 UNK   900       5.144 -61.964 -60.277  1.00  0.00     0.217 HD
ENDBRANCH  19  25
ENDBRANCH  13  14
ENDBRANCH   7  13
BRANCH  12  27
HETATM   27  O4  UNK   900       6.655 -62.895 -64.629  1.00  0.00    -0.361 OA
HETATM   28  H18 UNK   900       7.411 -62.594 -64.097  1.00  0.00     0.217 HD
ENDBRANCH  12  27
TORSDOF 7
ENDMDL
MODEL 9
REMARK VINA RESULT:      -5.4     35.616     37.390
REMARK  7 active torsions:
REMARK  status: ('A' for Active; 'I' for Inactive)
REMARK    1  A    between atoms: O2_2  and  C5_11 
REMARK    2  A    between atoms: O2_2  and  C12_18 
REMARK    3  A    between atoms: O4_4  and  C13_19 
REMARK    4  A    between atoms: O5_5  and  C16_22 
REMARK    5  A    between atoms: O6_6  and  C17_23 
REMARK    6  A    between atoms: C9_15  and  C10_16 
REMARK    7  A    between atoms: C10_16  and  C14_20 
ROOT
HETATM    1  O1  UNK   900       9.637 -51.951 -74.246  1.00  0.00    -0.312 OA
HETATM    2  O3  UNK   900      10.068 -52.291 -76.443  1.00  0.00    -0.259 OA
HETATM    3  C1  UNK   900       9.859 -53.756 -72.636  1.00  0.00     0.071 C 
HETATM    4  C2  UNK   900       9.096 -52.496 -73.021  1.00  0.00     0.132 C 
HETATM    5  C3  UNK   900       9.774 -54.710 -73.789  1.00  0.00    -0.034 A 
HETATM    6  C4  UNK   900       9.749 -54.207 -75.095  1.00  0.00     0.080 A 
HETATM    7  C5  UNK   900       9.694 -55.082 -76.185  1.00  0.00     0.095 A 
HETATM    8  C6  UNK   900       9.762 -56.094 -73.582  1.00  0.00     0.044 A 
HETATM    9  C7  UNK   900       9.825 -52.746 -75.333  1.00  0.00     0.297 C 
HETATM   10  C8  UNK   900       9.218 -51.425 -71.947  1.00  0.00     0.040 C 
HETATM   11  C11 UNK   900       9.666 -56.459 -75.969  1.00  0.00     0.074 A 
HETATM   12  C13 UNK   900       9.703 -56.965 -74.670  1.00  0.00     0.069 A 
ENDROOT
BRANCH   7  13
HETATM   13  O2  UNK   900       9.655 -54.644 -77.476  1.00  0.00    -0.306 OA
BRANCH  13  14
HETATM   14  C12 UNK   900      10.537 -55.218 -78.375  1.00  0.00     0.115 A 
HETATM   15  C9  UNK   900      10.060 -56.024 -79.410  1.00  0.00    -0.019 A 
HETATM   16  C15 UNK   900      10.951 -56.600 -80.314  1.00  0.00     0.046 A 
HETATM   17  C17 UNK   900      12.321 -56.371 -80.183  1.00  0.00     0.069 A 
HETATM   18  C18 UNK   900      12.800 -55.568 -79.149  1.00  0.00     0.076 A 
HETATM   19  C16 UNK   900      11.907 -54.991 -78.245  1.00  0.00     0.102 A 
BRANCH  15  20
HETATM   20  C10 UNK   900       8.596 -56.278 -79.566  1.00  0.00     0.041 C 
BRANCH  20  21
HETATM   21  C14 UNK   900       7.983 -55.451 -80.705  1.00  0.00     0.000 C 
HETATM   22  C19 UNK   900       6.720 -54.729 -80.265  1.00  0.00     0.005 C 
ENDBRANCH  20  21
ENDBRANCH  15  20
BRANCH  17  23
HETATM   23  O6  UNK   900      13.192 -56.935 -81.065  1.00  0.00    -0.361 OA
HETATM   24  H20 UNK   900      13.708 -57.619 -80.607  1.00  0.00     0.217 HD
ENDBRANCH  17  23
BRANCH  19  25
HETATM   25  O5  UNK   900      12.386 -54.208 -77.238  1.00  0.00    -0.358 OA
HETATM   26  H19 UNK   900      12.083 -54.566 -76.386  1.00  0.00     0.217 HD
ENDBRANCH  19  25
ENDBRANCH  13  14
ENDBRANCH   7  13
BRANCH  12  27
HETATM   27  O4  UNK   900       9.682 -58.310 -74.464  1.00  0.00    -0.361 OA
HETATM   28  H18 UNK   900       8.890 -58.538 -73.947  1.00  0.00     0.217 HD
ENDBRANCH  12  27
TORSDOF 7
ENDMDL
