MODEL 1
REMARK VINA RESULT:      -5.8      0.000      0.000
REMARK  6 active torsions:
REMARK  status: ('A' for Active; 'I' for Inactive)
REMARK    1  A    between atoms: O1_1  and  C5_9 
REMARK    2  A    between atoms: O2_2  and  C7_11 
REMARK    3  A    between atoms: O4_4  and  C16_20 
REMARK    4  A    between atoms: C2_6  and  C12_16 
REMARK    5  A    between atoms: C12_16  and  C15_19 
REMARK    6  A    between atoms: C15_19  and  C16_20 
ROOT
HETATM    1  C1  UNK   900       6.343 -68.809 -50.471  1.00  0.00     0.012 C 
HETATM    2  C2  UNK   900       6.277 -67.916 -49.191  1.00  0.00     0.055 C 
HETATM    3  C3  UNK   900       5.631 -68.127 -51.668  1.00  0.00     0.016 C 
HETATM    4  C4  UNK   900       5.796 -70.242 -50.316  1.00  0.00     0.009 C 
HETATM    5  C5  UNK   900       6.991 -66.540 -49.488  1.00  0.00     0.086 C 
HETATM    6  C6  UNK   900       5.921 -68.914 -52.956  1.00  0.00     0.046 C 
HETATM    7  C7  UNK   900       5.480 -70.387 -52.859  1.00  0.00     0.055 C 
HETATM    8  C8  UNK   900       6.042 -71.051 -51.593  1.00  0.00     0.038 C 
HETATM    9  C9  UNK   900       5.996 -66.674 -51.803  1.00  0.00    -0.023 C 
HETATM   10  C10 UNK   900       4.823 -67.713 -48.706  1.00  0.00     0.027 C 
HETATM   11  C11 UNK   900       6.589 -65.967 -50.832  1.00  0.00     0.008 C 
HETATM   12  C13 UNK   900       8.531 -66.616 -49.466  1.00  0.00     0.051 C 
HETATM   13  C14 UNK   900       3.955 -70.531 -52.930  1.00  0.00     0.045 C 
ENDROOT
BRANCH   2  14
HETATM   14  C12 UNK   900       7.003 -68.605 -48.056  1.00  0.00     0.141 C 
HETATM   15  O3  UNK   900       8.122 -69.089 -48.222  1.00  0.00    -0.297 OA
BRANCH  14  16
HETATM   16  C15 UNK   900       6.267 -68.656 -46.727  1.00  0.00     0.105 C 
BRANCH  16  17
HETATM   17  C16 UNK   900       7.055 -68.026 -45.587  1.00  0.00     0.171 C 
BRANCH  17  18
HETATM   18  O4  UNK   900       7.808 -66.915 -46.058  1.00  0.00    -0.400 OA
HETATM   19  H26 UNK   900       7.443 -66.660 -46.922  1.00  0.00     0.209 HD
ENDBRANCH  17  18
ENDBRANCH  16  17
ENDBRANCH  14  16
ENDBRANCH   2  14
BRANCH   5  20
HETATM   20  O1  UNK   900       6.610 -65.598 -48.475  1.00  0.00    -0.385 OA
HETATM   21  H22 UNK   900       7.315 -64.934 -48.391  1.00  0.00     0.211 HD
ENDBRANCH   5  20
BRANCH   7  22
HETATM   22  O2  UNK   900       6.019 -71.090 -53.983  1.00  0.00    -0.390 OA
HETATM   23  H23 UNK   900       6.235 -70.436 -54.670  1.00  0.00     0.210 HD
ENDBRANCH   7  22
TORSDOF 6
ENDMDL
MODEL 2
REMARK VINA RESULT:      -5.1     38.140     40.777
REMARK  6 active torsions:
REMARK  status: ('A' for Active; 'I' for Inactive)
REMARK    1  A    between atoms: O1_1  and  C5_9 
REMARK    2  A    between atoms: O2_2  and  C7_11 
REMARK    3  A    between atoms: O4_4  and  C16_20 
REMARK    4  A    between atoms: C2_6  and  C12_16 
REMARK    5  A    between atoms: C12_16  and  C15_19 
REMARK    6  A    between atoms: C15_19  and  C16_20 
ROOT
HETATM    1  C1  UNK   900      22.210 -31.518 -48.038  1.00  0.00     0.012 C 
HETATM    2  C2  UNK   900      22.759 -30.769 -49.294  1.00  0.00     0.055 C 
HETATM    3  C3  UNK   900      22.426 -33.048 -48.158  1.00  0.00     0.016 C 
HETATM    4  C4  UNK   900      20.732 -31.248 -47.692  1.00  0.00     0.009 C 
HETATM    5  C5  UNK   900      24.306 -31.054 -49.425  1.00  0.00     0.086 C 
HETATM    6  C6  UNK   900      22.097 -33.722 -46.816  1.00  0.00     0.046 C 
HETATM    7  C7  UNK   900      20.657 -33.436 -46.350  1.00  0.00     0.055 C 
HETATM    8  C8  UNK   900      20.358 -31.929 -46.372  1.00  0.00     0.038 C 
HETATM    9  C9  UNK   900      23.808 -33.398 -48.639  1.00  0.00    -0.023 C 
HETATM   10  C10 UNK   900      21.994 -31.164 -50.578  1.00  0.00     0.027 C 
HETATM   11  C11 UNK   900      24.638 -32.516 -49.211  1.00  0.00     0.008 C 
HETATM   12  C13 UNK   900      25.177 -30.240 -48.447  1.00  0.00     0.051 C 
HETATM   13  C14 UNK   900      19.626 -34.217 -47.173  1.00  0.00     0.045 C 
ENDROOT
BRANCH   2  14
HETATM   14  C12 UNK   900      22.551 -29.280 -49.126  1.00  0.00     0.141 C 
HETATM   15  O3  UNK   900      22.909 -28.703 -48.100  1.00  0.00    -0.297 OA
BRANCH  14  16
HETATM   16  C15 UNK   900      21.884 -28.564 -50.289  1.00  0.00     0.105 C 
BRANCH  16  17
HETATM   17  C16 UNK   900      22.758 -27.477 -50.898  1.00  0.00     0.171 C 
BRANCH  17  18
HETATM   18  O4  UNK   900      24.133 -27.829 -50.794  1.00  0.00    -0.400 OA
HETATM   19  H26 UNK   900      24.238 -28.359 -49.987  1.00  0.00     0.209 HD
ENDBRANCH  17  18
ENDBRANCH  16  17
ENDBRANCH  14  16
ENDBRANCH   2  14
BRANCH   5  20
HETATM   20  O1  UNK   900      24.728 -30.695 -50.749  1.00  0.00    -0.385 OA
HETATM   21  H22 UNK   900      25.658 -30.956 -50.858  1.00  0.00     0.211 HD
ENDBRANCH   5  20
BRANCH   7  22
HETATM   22  O2  UNK   900      20.530 -33.875 -44.993  1.00  0.00    -0.390 OA
HETATM   23  H23 UNK   900      20.640 -33.100 -44.416  1.00  0.00     0.210 HD
ENDBRANCH   7  22
TORSDOF 6
ENDMDL
MODEL 3
REMARK VINA RESULT:      -4.8     38.239     40.960
REMARK  6 active torsions:
REMARK  status: ('A' for Active; 'I' for Inactive)
REMARK    1  A    between atoms: O1_1  and  C5_9 
REMARK    2  A    between atoms: O2_2  and  C7_11 
REMARK    3  A    between atoms: O4_4  and  C16_20 
REMARK    4  A    between atoms: C2_6  and  C12_16 
REMARK    5  A    between atoms: C12_16  and  C15_19 
REMARK    6  A    between atoms: C15_19  and  C16_20 
ROOT
HETATM    1  C1  UNK   900      23.973 -31.166 -47.801  1.00  0.00     0.012 C 
HETATM    2  C2  UNK   900      22.912 -32.192 -48.309  1.00  0.00     0.055 C 
HETATM    3  C3  UNK   900      25.030 -30.863 -48.895  1.00  0.00     0.016 C 
HETATM    4  C4  UNK   900      24.701 -31.547 -46.496  1.00  0.00     0.009 C 
HETATM    5  C5  UNK   900      22.178 -31.589 -49.570  1.00  0.00     0.086 C 
HETATM    6  C6  UNK   900      25.909 -29.683 -48.451  1.00  0.00     0.046 C 
HETATM    7  C7  UNK   900      26.613 -29.946 -47.106  1.00  0.00     0.055 C 
HETATM    8  C8  UNK   900      25.610 -30.403 -46.036  1.00  0.00     0.038 C 
HETATM    9  C9  UNK   900      24.410 -30.626 -50.244  1.00  0.00    -0.023 C 
HETATM   10  C10 UNK   900      23.545 -33.568 -48.620  1.00  0.00     0.027 C 
HETATM   11  C11 UNK   900      23.147 -30.958 -50.547  1.00  0.00     0.008 C 
HETATM   12  C13 UNK   900      21.117 -30.524 -49.226  1.00  0.00     0.051 C 
HETATM   13  C14 UNK   900      27.764 -30.949 -47.252  1.00  0.00     0.045 C 
ENDROOT
BRANCH   2  14
HETATM   14  C12 UNK   900      21.888 -32.440 -47.223  1.00  0.00     0.141 C 
HETATM   15  O3  UNK   900      21.401 -31.506 -46.587  1.00  0.00    -0.297 OA
BRANCH  14  16
HETATM   16  C15 UNK   900      21.513 -33.893 -46.978  1.00  0.00     0.105 C 
BRANCH  16  17
HETATM   17  C16 UNK   900      20.011 -34.135 -47.027  1.00  0.00     0.171 C 
BRANCH  17  18
HETATM   18  O4  UNK   900      19.435 -33.461 -48.139  1.00  0.00    -0.400 OA
HETATM   19  H26 UNK   900      18.882 -34.102 -48.616  1.00  0.00     0.209 HD
ENDBRANCH  17  18
ENDBRANCH  16  17
ENDBRANCH  14  16
ENDBRANCH   2  14
BRANCH   5  20
HETATM   20  O1  UNK   900      21.492 -32.650 -50.252  1.00  0.00    -0.385 OA
HETATM   21  H22 UNK   900      20.991 -32.267 -50.992  1.00  0.00     0.211 HD
ENDBRANCH   5  20
BRANCH   7  22
HETATM   22  O2  UNK   900      27.186 -28.714 -46.653  1.00  0.00    -0.390 OA
HETATM   23  H23 UNK   900      26.648 -28.389 -45.911  1.00  0.00     0.210 HD
ENDBRANCH   7  22
TORSDOF 6
ENDMDL
MODEL 4
REMARK VINA RESULT:      -4.7     11.912     14.026
REMARK  6 active torsions:
REMARK  status: ('A' for Active; 'I' for Inactive)
REMARK    1  A    between atoms: O1_1  and  C5_9 
REMARK    2  A    between atoms: O2_2  and  C7_11 
REMARK    3  A    between atoms: O4_4  and  C16_20 
REMARK    4  A    between atoms: C2_6  and  C12_16 
REMARK    5  A    between atoms: C12_16  and  C15_19 
REMARK    6  A    between atoms: C15_19  and  C16_20 
ROOT
HETATM    1  C1  UNK   900       3.144 -63.537 -62.213  1.00  0.00     0.012 C 
HETATM    2  C2  UNK   900       3.981 -64.842 -62.021  1.00  0.00     0.055 C 
HETATM    3  C3  UNK   900       3.389 -62.537 -61.054  1.00  0.00     0.016 C 
HETATM    4  C4  UNK   900       1.625 -63.736 -62.387  1.00  0.00     0.009 C 
HETATM    5  C5  UNK   900       5.514 -64.467 -61.990  1.00  0.00     0.086 C 
HETATM    6  C6  UNK   900       2.744 -61.184 -61.395  1.00  0.00     0.046 C 
HETATM    7  C7  UNK   900       1.232 -61.303 -61.668  1.00  0.00     0.055 C 
HETATM    8  C8  UNK   900       0.942 -62.402 -62.702  1.00  0.00     0.038 C 
HETATM    9  C9  UNK   900       4.848 -62.395 -60.715  1.00  0.00    -0.023 C 
HETATM   10  C10 UNK   900       3.555 -65.616 -60.752  1.00  0.00     0.027 C 
HETATM   11  C11 UNK   900       5.789 -63.258 -61.122  1.00  0.00     0.008 C 
HETATM   12  C13 UNK   900       6.115 -64.178 -63.380  1.00  0.00     0.051 C 
HETATM   13  C14 UNK   900       0.437 -61.533 -60.377  1.00  0.00     0.045 C 
ENDROOT
BRANCH   2  14
HETATM   14  C12 UNK   900       3.732 -65.778 -63.184  1.00  0.00     0.141 C 
HETATM   15  O3  UNK   900       3.811 -65.380 -64.345  1.00  0.00    -0.297 OA
BRANCH  14  16
HETATM   16  C15 UNK   900       3.384 -67.213 -62.822  1.00  0.00     0.105 C 
BRANCH  16  17
HETATM   17  C16 UNK   900       4.347 -68.227 -63.423  1.00  0.00     0.171 C 
BRANCH  17  18
HETATM   18  O4  UNK   900       5.680 -67.733 -63.377  1.00  0.00    -0.400 OA
HETATM   19  H26 UNK   900       6.277 -68.499 -63.427  1.00  0.00     0.209 HD
ENDBRANCH  17  18
ENDBRANCH  16  17
ENDBRANCH  14  16
ENDBRANCH   2  14
BRANCH   5  20
HETATM   20  O1  UNK   900       6.245 -65.576 -61.447  1.00  0.00    -0.385 OA
HETATM   21  H22 UNK   900       6.380 -65.420 -60.496  1.00  0.00     0.211 HD
ENDBRANCH   5  20
BRANCH   7  22
HETATM   22  O2  UNK   900       0.779 -60.065 -62.225  1.00  0.00    -0.390 OA
HETATM   23  H23 UNK   900       1.060 -59.348 -61.630  1.00  0.00     0.210 HD
ENDBRANCH   7  22
TORSDOF 6
ENDMDL
MODEL 5
REMARK VINA RESULT:      -4.7     37.558     40.201
REMARK  6 active torsions:
REMARK  status: ('A' for Active; 'I' for Inactive)
REMARK    1  A    between atoms: O1_1  and  C5_9 
REMARK    2  A    between atoms: O2_2  and  C7_11 
REMARK    3  A    between atoms: O4_4  and  C16_20 
REMARK    4  A    between atoms: C2_6  and  C12_16 
REMARK    5  A    between atoms: C12_16  and  C15_19 
REMARK    6  A    between atoms: C15_19  and  C16_20 
ROOT
HETATM    1  C1  UNK   900      21.567 -31.883 -47.857  1.00  0.00     0.012 C 
HETATM    2  C2  UNK   900      22.888 -31.708 -48.672  1.00  0.00     0.055 C 
HETATM    3  C3  UNK   900      21.805 -32.726 -46.577  1.00  0.00     0.016 C 
HETATM    4  C4  UNK   900      20.377 -32.480 -48.633  1.00  0.00     0.009 C 
HETATM    5  C5  UNK   900      23.953 -30.970 -47.770  1.00  0.00     0.086 C 
HETATM    6  C6  UNK   900      20.553 -32.675 -45.687  1.00  0.00     0.046 C 
HETATM    7  C7  UNK   900      19.292 -33.179 -46.414  1.00  0.00     0.055 C 
HETATM    8  C8  UNK   900      19.114 -32.472 -47.767  1.00  0.00     0.038 C 
HETATM    9  C9  UNK   900      23.042 -32.305 -45.832  1.00  0.00    -0.023 C 
HETATM   10  C10 UNK   900      23.423 -33.060 -49.198  1.00  0.00     0.027 C 
HETATM   11  C11 UNK   900      24.000 -31.535 -46.365  1.00  0.00     0.008 C 
HETATM   12  C13 UNK   900      23.722 -29.451 -47.644  1.00  0.00     0.051 C 
HETATM   13  C14 UNK   900      19.301 -34.703 -46.582  1.00  0.00     0.045 C 
ENDROOT
BRANCH   2  14
HETATM   14  C12 UNK   900      22.618 -30.861 -49.896  1.00  0.00     0.141 C 
HETATM   15  O3  UNK   900      23.418 -30.825 -50.830  1.00  0.00    -0.297 OA
BRANCH  14  16
HETATM   16  C15 UNK   900      21.316 -30.075 -49.890  1.00  0.00     0.105 C 
BRANCH  16  17
HETATM   17  C16 UNK   900      21.495 -28.627 -50.324  1.00  0.00     0.171 C 
BRANCH  17  18
HETATM   18  O4  UNK   900      20.230 -28.016 -50.548  1.00  0.00    -0.400 OA
HETATM   19  H26 UNK   900      19.676 -28.657 -51.025  1.00  0.00     0.209 HD
ENDBRANCH  17  18
ENDBRANCH  16  17
ENDBRANCH  14  16
ENDBRANCH   2  14
BRANCH   5  20
HETATM   20  O1  UNK   900      25.251 -31.143 -48.358  1.00  0.00    -0.385 OA
HETATM   21  H22 UNK   900      25.883 -31.362 -47.653  1.00  0.00     0.211 HD
ENDBRANCH   5  20
BRANCH   7  22
HETATM   22  O2  UNK   900      18.152 -32.853 -45.611  1.00  0.00    -0.390 OA
HETATM   23  H23 UNK   900      17.636 -33.666 -45.479  1.00  0.00     0.210 HD
ENDBRANCH   7  22
TORSDOF 6
ENDMDL
MODEL 6
REMARK VINA RESULT:      -4.7     30.311     31.870
REMARK  6 active torsions:
REMARK  status: ('A' for Active; 'I' for Inactive)
REMARK    1  A    between atoms: O1_1  and  C5_9 
REMARK    2  A    between atoms: O2_2  and  C7_11 
REMARK    3  A    between atoms: O4_4  and  C16_20 
REMARK    4  A    between atoms: C2_6  and  C12_16 
REMARK    5  A    between atoms: C12_16  and  C15_19 
REMARK    6  A    between atoms: C15_19  and  C16_20 
ROOT
HETATM    1  C1  UNK   900      37.591 -65.724 -52.850  1.00  0.00     0.012 C 
HETATM    2  C2  UNK   900      38.233 -64.624 -51.945  1.00  0.00     0.055 C 
HETATM    3  C3  UNK   900      37.593 -67.104 -52.143  1.00  0.00     0.016 C 
HETATM    4  C4  UNK   900      38.212 -65.881 -54.253  1.00  0.00     0.009 C 
HETATM    5  C5  UNK   900      37.400 -64.510 -50.609  1.00  0.00     0.086 C 
HETATM    6  C6  UNK   900      36.748 -68.099 -52.953  1.00  0.00     0.046 C 
HETATM    7  C7  UNK   900      37.250 -68.257 -54.402  1.00  0.00     0.055 C 
HETATM    8  C8  UNK   900      37.412 -66.889 -55.083  1.00  0.00     0.038 C 
HETATM    9  C9  UNK   900      37.140 -67.017 -50.711  1.00  0.00    -0.023 C 
HETATM   10  C10 UNK   900      39.726 -64.909 -51.665  1.00  0.00     0.027 C 
HETATM   11  C11 UNK   900      37.065 -65.867 -50.028  1.00  0.00     0.008 C 
HETATM   12  C13 UNK   900      36.074 -63.739 -50.763  1.00  0.00     0.051 C 
HETATM   13  C14 UNK   900      38.551 -69.067 -54.469  1.00  0.00     0.045 C 
ENDROOT
BRANCH   2  14
HETATM   14  C12 UNK   900      38.189 -63.292 -52.661  1.00  0.00     0.141 C 
HETATM   15  O3  UNK   900      37.255 -63.006 -53.409  1.00  0.00    -0.297 OA
BRANCH  14  16
HETATM   16  C15 UNK   900      39.355 -62.353 -52.396  1.00  0.00     0.105 C 
BRANCH  16  17
HETATM   17  C16 UNK   900      38.911 -60.947 -52.016  1.00  0.00     0.171 C 
BRANCH  17  18
HETATM   18  O4  UNK   900      38.374 -60.273 -53.148  1.00  0.00    -0.400 OA
HETATM   19  H26 UNK   900      37.822 -59.544 -52.819  1.00  0.00     0.209 HD
ENDBRANCH  17  18
ENDBRANCH  16  17
ENDBRANCH  14  16
ENDBRANCH   2  14
BRANCH   5  20
HETATM   20  O1  UNK   900      38.182 -63.796 -49.641  1.00  0.00    -0.385 OA
HETATM   21  H22 UNK   900      38.058 -62.842 -49.787  1.00  0.00     0.211 HD
ENDBRANCH   5  20
BRANCH   7  22
HETATM   22  O2  UNK   900      36.264 -68.986 -55.140  1.00  0.00    -0.390 OA
HETATM   23  H23 UNK   900      35.398 -68.579 -54.965  1.00  0.00     0.210 HD
ENDBRANCH   7  22
TORSDOF 6
ENDMDL
MODEL 7
REMARK VINA RESULT:      -4.7      3.420      5.509
REMARK  6 active torsions:
REMARK  status: ('A' for Active; 'I' for Inactive)
REMARK    1  A    between atoms: O1_1  and  C5_9 
REMARK    2  A    between atoms: O2_2  and  C7_11 
REMARK    3  A    between atoms: O4_4  and  C16_20 
REMARK    4  A    between atoms: C2_6  and  C12_16 
REMARK    5  A    between atoms: C12_16  and  C15_19 
REMARK    6  A    between atoms: C15_19  and  C16_20 
ROOT
HETATM    1  C1  UNK   900       5.074 -67.138 -51.201  1.00  0.00     0.012 C 
HETATM    2  C2  UNK   900       3.638 -67.027 -50.598  1.00  0.00     0.055 C 
HETATM    3  C3  UNK   900       5.875 -68.287 -50.535  1.00  0.00     0.016 C 
HETATM    4  C4  UNK   900       5.920 -65.849 -51.156  1.00  0.00     0.009 C 
HETATM    5  C5  UNK   900       2.873 -68.386 -50.842  1.00  0.00     0.086 C 
HETATM    6  C6  UNK   900       7.182 -68.521 -51.310  1.00  0.00     0.046 C 
HETATM    7  C7  UNK   900       8.056 -67.254 -51.387  1.00  0.00     0.055 C 
HETATM    8  C8  UNK   900       7.246 -66.052 -51.896  1.00  0.00     0.038 C 
HETATM    9  C9  UNK   900       5.068 -69.549 -50.401  1.00  0.00    -0.023 C 
HETATM   10  C10 UNK   900       3.671 -66.651 -49.098  1.00  0.00     0.027 C 
HETATM   11  C11 UNK   900       3.734 -69.591 -50.527  1.00  0.00     0.008 C 
HETATM   12  C13 UNK   900       2.353 -68.561 -52.283  1.00  0.00     0.051 C 
HETATM   13  C14 UNK   900       8.726 -66.942 -50.043  1.00  0.00     0.045 C 
ENDROOT
BRANCH   2  14
HETATM   14  C12 UNK   900       2.884 -65.913 -51.290  1.00  0.00     0.141 C 
HETATM   15  O3  UNK   900       3.134 -65.608 -52.455  1.00  0.00    -0.297 OA
BRANCH  14  16
HETATM   16  C15 UNK   900       1.818 -65.213 -50.462  1.00  0.00     0.105 C 
BRANCH  16  17
HETATM   17  C16 UNK   900       0.403 -65.543 -50.913  1.00  0.00     0.171 C 
BRANCH  17  18
HETATM   18  O4  UNK   900       0.336 -65.608 -52.333  1.00  0.00    -0.400 OA
HETATM   19  H26 UNK   900      -0.589 -65.457 -52.589  1.00  0.00     0.209 HD
ENDBRANCH  17  18
ENDBRANCH  16  17
ENDBRANCH  14  16
ENDBRANCH   2  14
BRANCH   5  20
HETATM   20  O1  UNK   900       1.725 -68.427 -49.981  1.00  0.00    -0.385 OA
HETATM   21  H22 UNK   900       1.701 -69.293 -49.541  1.00  0.00     0.211 HD
ENDBRANCH   5  20
BRANCH   7  22
HETATM   22  O2  UNK   900       9.104 -67.491 -52.333  1.00  0.00    -0.390 OA
HETATM   23  H23 UNK   900       9.230 -66.678 -52.850  1.00  0.00     0.210 HD
ENDBRANCH   7  22
TORSDOF 6
ENDMDL
MODEL 8
REMARK VINA RESULT:      -4.4     22.523     24.301
REMARK  6 active torsions:
REMARK  status: ('A' for Active; 'I' for Inactive)
REMARK    1  A    between atoms: O1_1  and  C5_9 
REMARK    2  A    between atoms: O2_2  and  C7_11 
REMARK    3  A    between atoms: O4_4  and  C16_20 
REMARK    4  A    between atoms: C2_6  and  C12_16 
REMARK    5  A    between atoms: C12_16  and  C15_19 
REMARK    6  A    between atoms: C15_19  and  C16_20 
ROOT
HETATM    1  C1  UNK   900      25.354 -68.057 -64.998  1.00  0.00     0.012 C 
HETATM    2  C2  UNK   900      24.045 -68.807 -65.401  1.00  0.00     0.055 C 
HETATM    3  C3  UNK   900      25.850 -67.139 -66.145  1.00  0.00     0.016 C 
HETATM    4  C4  UNK   900      26.521 -68.951 -64.534  1.00  0.00     0.009 C 
HETATM    5  C5  UNK   900      22.922 -67.744 -65.721  1.00  0.00     0.086 C 
HETATM    6  C6  UNK   900      26.990 -66.244 -65.633  1.00  0.00     0.046 C 
HETATM    7  C7  UNK   900      28.172 -67.059 -65.070  1.00  0.00     0.055 C 
HETATM    8  C8  UNK   900      27.690 -68.093 -64.041  1.00  0.00     0.038 C 
HETATM    9  C9  UNK   900      24.738 -66.335 -66.761  1.00  0.00    -0.023 C 
HETATM   10  C10 UNK   900      24.276 -69.770 -66.588  1.00  0.00     0.027 C 
HETATM   11  C11 UNK   900      23.439 -66.610 -66.581  1.00  0.00     0.008 C 
HETATM   12  C13 UNK   900      22.283 -67.113 -64.468  1.00  0.00     0.051 C 
HETATM   13  C14 UNK   900      28.986 -67.725 -66.186  1.00  0.00     0.045 C 
ENDROOT
BRANCH   2  14
HETATM   14  C12 UNK   900      23.582 -69.671 -64.248  1.00  0.00     0.141 C 
HETATM   15  O3  UNK   900      23.492 -69.212 -63.110  1.00  0.00    -0.297 OA
BRANCH  14  16
HETATM   16  C15 UNK   900      23.244 -71.114 -64.588  1.00  0.00     0.105 C 
BRANCH  16  17
HETATM   17  C16 UNK   900      21.818 -71.493 -64.218  1.00  0.00     0.171 C 
BRANCH  17  18
HETATM   18  O4  UNK   900      20.951 -70.376 -64.371  1.00  0.00    -0.400 OA
HETATM   19  H26 UNK   900      20.647 -70.366 -65.294  1.00  0.00     0.209 HD
ENDBRANCH  17  18
ENDBRANCH  16  17
ENDBRANCH  14  16
ENDBRANCH   2  14
BRANCH   5  20
HETATM   20  O1  UNK   900      21.865 -68.397 -66.439  1.00  0.00    -0.385 OA
HETATM   21  H22 UNK   900      21.386 -67.728 -66.957  1.00  0.00     0.211 HD
ENDBRANCH   5  20
BRANCH   7  22
HETATM   22  O2  UNK   900      29.052 -66.158 -64.389  1.00  0.00    -0.390 OA
HETATM   23  H23 UNK   900      29.175 -66.488 -63.483  1.00  0.00     0.210 HD
ENDBRANCH   7  22
TORSDOF 6
ENDMDL
MODEL 9
REMARK VINA RESULT:      -4.4     27.975     29.694
REMARK  6 active torsions:
REMARK  status: ('A' for Active; 'I' for Inactive)
REMARK    1  A    between atoms: O1_1  and  C5_9 
REMARK    2  A    between atoms: O2_2  and  C7_11 
REMARK    3  A    between atoms: O4_4  and  C16_20 
REMARK    4  A    between atoms: C2_6  and  C12_16 
REMARK    5  A    between atoms: C12_16  and  C15_19 
REMARK    6  A    between atoms: C15_19  and  C16_20 
ROOT
HETATM    1  C1  UNK   900      29.620 -67.300 -66.742  1.00  0.00     0.012 C 
HETATM    2  C2  UNK   900      30.118 -67.088 -68.207  1.00  0.00     0.055 C 
HETATM    3  C3  UNK   900      28.852 -68.639 -66.598  1.00  0.00     0.016 C 
HETATM    4  C4  UNK   900      28.757 -66.164 -66.158  1.00  0.00     0.009 C 
HETATM    5  C5  UNK   900      31.087 -68.272 -68.596  1.00  0.00     0.086 C 
HETATM    6  C6  UNK   900      28.589 -68.926 -65.111  1.00  0.00     0.046 C 
HETATM    7  C7  UNK   900      27.798 -67.797 -64.424  1.00  0.00     0.055 C 
HETATM    8  C8  UNK   900      28.450 -66.429 -64.681  1.00  0.00     0.038 C 
HETATM    9  C9  UNK   900      29.556 -69.782 -67.276  1.00  0.00    -0.023 C 
HETATM   10  C10 UNK   900      28.941 -66.961 -69.201  1.00  0.00     0.027 C 
HETATM   11  C11 UNK   900      30.541 -69.619 -68.170  1.00  0.00     0.008 C 
HETATM   12  C13 UNK   900      32.503 -68.144 -68.000  1.00  0.00     0.051 C 
HETATM   13  C14 UNK   900      26.323 -67.796 -64.844  1.00  0.00     0.045 C 
ENDROOT
BRANCH   2  14
HETATM   14  C12 UNK   900      30.883 -65.785 -68.297  1.00  0.00     0.141 C 
HETATM   15  O3  UNK   900      31.773 -65.516 -67.492  1.00  0.00    -0.297 OA
BRANCH  14  16
HETATM   16  C15 UNK   900      30.481 -64.853 -69.429  1.00  0.00     0.105 C 
BRANCH  16  17
HETATM   17  C16 UNK   900      31.633 -64.530 -70.370  1.00  0.00     0.171 C 
BRANCH  17  18
HETATM   18  O4  UNK   900      32.569 -65.600 -70.395  1.00  0.00    -0.400 OA
HETATM   19  H26 UNK   900      32.506 -66.064 -69.543  1.00  0.00     0.209 HD
ENDBRANCH  17  18
ENDBRANCH  16  17
ENDBRANCH  14  16
ENDBRANCH   2  14
BRANCH   5  20
HETATM   20  O1  UNK   900      31.240 -68.289 -70.023  1.00  0.00    -0.385 OA
HETATM   21  H22 UNK   900      31.555 -67.415 -70.309  1.00  0.00     0.211 HD
ENDBRANCH   5  20
BRANCH   7  22
HETATM   22  O2  UNK   900      27.831 -68.024 -63.011  1.00  0.00    -0.390 OA
HETATM   23  H23 UNK   900      27.092 -68.615 -62.785  1.00  0.00     0.210 HD
ENDBRANCH   7  22
TORSDOF 6
ENDMDL
