MODEL 1
REMARK VINA RESULT:      -6.9      0.000      0.000
REMARK  4 active torsions:
REMARK  status: ('A' for Active; 'I' for Inactive)
REMARK    1  A    between atoms: O3_3  and  C7_13 
REMARK    2  A    between atoms: O4_4  and  C8_14 
REMARK    3  A    between atoms: O5_5  and  C6_12 
REMARK    4  A    between atoms: O6_6  and  C12_18 
ROOT
HETATM    1  O1  UNK   900      29.539 -47.366 -63.619  1.00  0.00    -0.301 OA
HETATM    2  O2  UNK   900      31.858 -45.815 -63.017  1.00  0.00    -0.299 OA
HETATM    3  C1  UNK   900      29.956 -46.337 -64.423  1.00  0.00     0.119 A 
HETATM    4  C2  UNK   900      31.089 -45.578 -64.129  1.00  0.00     0.146 A 
HETATM    5  C3  UNK   900      30.306 -47.603 -62.508  1.00  0.00     0.146 A 
HETATM    6  C4  UNK   900      31.439 -46.845 -62.213  1.00  0.00     0.146 A 
HETATM    7  C5  UNK   900      29.206 -46.061 -65.566  1.00  0.00    -0.022 A 
HETATM    8  C6  UNK   900      29.918 -48.641 -61.661  1.00  0.00     0.108 A 
HETATM    9  C7  UNK   900      32.191 -47.122 -61.071  1.00  0.00     0.105 A 
HETATM   10  C8  UNK   900      31.478 -44.541 -64.976  1.00  0.00     0.138 A 
HETATM   11  C9  UNK   900      30.668 -48.919 -60.518  1.00  0.00    -0.023 A 
HETATM   12  C10 UNK   900      31.803 -48.160 -60.224  1.00  0.00     0.049 A 
HETATM   13  C11 UNK   900      29.594 -45.023 -66.413  1.00  0.00     0.049 A 
HETATM   14  C12 UNK   900      30.728 -44.264 -66.118  1.00  0.00     0.102 A 
HETATM   15  C13 UNK   900      27.989 -46.859 -65.901  1.00  0.00     0.051 C 
HETATM   16  C14 UNK   900      30.274 -50.025 -59.596  1.00  0.00     0.051 C 
ENDROOT
BRANCH   8  17
HETATM   17  O5  UNK   900      28.809 -49.381 -61.949  1.00  0.00    -0.357 OA
HETATM   18  H9  UNK   900      28.024 -49.028 -61.504  1.00  0.00     0.217 HD
ENDBRANCH   8  17
BRANCH   9  19
HETATM   19  O3  UNK   900      33.299 -46.392 -60.770  1.00  0.00    -0.353 OA
HETATM   20  C15 UNK   900      34.565 -47.016 -60.979  1.00  0.00     0.210 C 
ENDBRANCH   9  19
BRANCH  10  21
HETATM   21  O4  UNK   900      32.584 -43.798 -64.690  1.00  0.00    -0.351 OA
HETATM   22  C16 UNK   900      32.392 -42.625 -63.904  1.00  0.00     0.210 C 
ENDBRANCH  10  21
BRANCH  14  23
HETATM   23  O6  UNK   900      31.092 -43.254 -66.957  1.00  0.00    -0.358 OA
HETATM   24  H10 UNK   900      30.788 -43.463 -67.857  1.00  0.00     0.217 HD
ENDBRANCH  14  23
TORSDOF 4
ENDMDL
MODEL 2
REMARK VINA RESULT:      -6.7      2.186      2.344
REMARK  4 active torsions:
REMARK  status: ('A' for Active; 'I' for Inactive)
REMARK    1  A    between atoms: O3_3  and  C7_13 
REMARK    2  A    between atoms: O4_4  and  C8_14 
REMARK    3  A    between atoms: O5_5  and  C6_12 
REMARK    4  A    between atoms: O6_6  and  C12_18 
ROOT
HETATM    1  O1  UNK   900      29.851 -48.026 -64.266  1.00  0.00    -0.301 OA
HETATM    2  O2  UNK   900      32.647 -47.607 -64.650  1.00  0.00    -0.299 OA
HETATM    3  C1  UNK   900      30.339 -47.276 -65.305  1.00  0.00     0.119 A 
HETATM    4  C2  UNK   900      31.706 -47.070 -65.493  1.00  0.00     0.146 A 
HETATM    5  C3  UNK   900      30.791 -48.562 -63.424  1.00  0.00     0.146 A 
HETATM    6  C4  UNK   900      32.158 -48.357 -63.612  1.00  0.00     0.146 A 
HETATM    7  C5  UNK   900      29.418 -46.712 -66.187  1.00  0.00    -0.022 A 
HETATM    8  C6  UNK   900      30.339 -49.333 -62.353  1.00  0.00     0.108 A 
HETATM    9  C7  UNK   900      33.079 -48.923 -62.731  1.00  0.00     0.105 A 
HETATM   10  C8  UNK   900      32.159 -46.301 -66.564  1.00  0.00     0.138 A 
HETATM   11  C9  UNK   900      31.259 -49.898 -61.471  1.00  0.00    -0.023 A 
HETATM   12  C10 UNK   900      32.627 -49.694 -61.660  1.00  0.00     0.049 A 
HETATM   13  C11 UNK   900      29.870 -45.941 -67.258  1.00  0.00     0.049 A 
HETATM   14  C12 UNK   900      31.238 -45.735 -67.446  1.00  0.00     0.102 A 
HETATM   15  C13 UNK   900      27.950 -46.917 -66.005  1.00  0.00     0.051 C 
HETATM   16  C14 UNK   900      30.800 -50.727 -60.317  1.00  0.00     0.051 C 
ENDROOT
BRANCH   8  17
HETATM   17  O5  UNK   900      29.002 -49.531 -62.169  1.00  0.00    -0.357 OA
HETATM   18  H9  UNK   900      28.628 -48.876 -61.562  1.00  0.00     0.217 HD
ENDBRANCH   8  17
BRANCH   9  19
HETATM   19  O3  UNK   900      34.416 -48.733 -62.901  1.00  0.00    -0.353 OA
HETATM   20  C15 UNK   900      35.290 -49.445 -62.027  1.00  0.00     0.210 C 
ENDBRANCH   9  19
BRANCH  10  21
HETATM   21  O4  UNK   900      33.493 -46.098 -66.750  1.00  0.00    -0.351 OA
HETATM   22  C16 UNK   900      34.177 -47.021 -67.596  1.00  0.00     0.210 C 
ENDBRANCH  10  21
BRANCH  14  23
HETATM   23  O6  UNK   900      31.662 -44.980 -68.498  1.00  0.00    -0.358 OA
HETATM   24  H10 UNK   900      31.011 -45.044 -69.218  1.00  0.00     0.217 HD
ENDBRANCH  14  23
TORSDOF 4
ENDMDL
MODEL 3
REMARK VINA RESULT:      -6.6     10.745     12.386
REMARK  4 active torsions:
REMARK  status: ('A' for Active; 'I' for Inactive)
REMARK    1  A    between atoms: O3_3  and  C7_13 
REMARK    2  A    between atoms: O4_4  and  C8_14 
REMARK    3  A    between atoms: O5_5  and  C6_12 
REMARK    4  A    between atoms: O6_6  and  C12_18 
ROOT
HETATM    1  O1  UNK   900      34.115 -37.835 -56.927  1.00  0.00    -0.301 OA
HETATM    2  O2  UNK   900      36.568 -36.384 -56.777  1.00  0.00    -0.299 OA
HETATM    3  C1  UNK   900      34.236 -36.556 -57.408  1.00  0.00     0.119 A 
HETATM    4  C2  UNK   900      35.435 -35.847 -57.334  1.00  0.00     0.146 A 
HETATM    5  C3  UNK   900      35.247 -38.372 -56.370  1.00  0.00     0.146 A 
HETATM    6  C4  UNK   900      36.446 -37.663 -56.296  1.00  0.00     0.146 A 
HETATM    7  C5  UNK   900      33.109 -35.971 -57.985  1.00  0.00    -0.022 A 
HETATM    8  C6  UNK   900      35.169 -39.671 -55.868  1.00  0.00     0.108 A 
HETATM    9  C7  UNK   900      37.573 -38.249 -55.721  1.00  0.00     0.105 A 
HETATM   10  C8  UNK   900      35.513 -34.548 -57.837  1.00  0.00     0.138 A 
HETATM   11  C9  UNK   900      36.296 -40.258 -55.292  1.00  0.00    -0.023 A 
HETATM   12  C10 UNK   900      37.495 -39.548 -55.219  1.00  0.00     0.049 A 
HETATM   13  C11 UNK   900      33.187 -34.672 -58.486  1.00  0.00     0.049 A 
HETATM   14  C12 UNK   900      34.387 -33.961 -58.413  1.00  0.00     0.102 A 
HETATM   15  C13 UNK   900      31.815 -36.710 -58.074  1.00  0.00     0.051 C 
HETATM   16  C14 UNK   900      36.238 -41.648 -54.748  1.00  0.00     0.051 C 
ENDROOT
BRANCH   8  17
HETATM   17  O5  UNK   900      33.997 -40.363 -55.939  1.00  0.00    -0.357 OA
HETATM   18  H9  UNK   900      33.742 -40.716 -55.074  1.00  0.00     0.217 HD
ENDBRANCH   8  17
BRANCH   9  19
HETATM   19  O3  UNK   900      38.750 -37.570 -55.642  1.00  0.00    -0.353 OA
HETATM   20  C15 UNK   900      39.807 -38.186 -54.908  1.00  0.00     0.210 C 
ENDBRANCH   9  19
BRANCH  10  21
HETATM   21  O4  UNK   900      36.683 -33.853 -57.766  1.00  0.00    -0.351 OA
HETATM   22  C16 UNK   900      37.566 -33.955 -58.881  1.00  0.00     0.210 C 
ENDBRANCH  10  21
BRANCH  14  23
HETATM   23  O6  UNK   900      34.444 -32.694 -58.908  1.00  0.00    -0.358 OA
HETATM   24  H10 UNK   900      34.486 -32.734 -59.879  1.00  0.00     0.217 HD
ENDBRANCH  14  23
TORSDOF 4
ENDMDL
MODEL 4
REMARK VINA RESULT:      -6.5      2.031      4.743
REMARK  4 active torsions:
REMARK  status: ('A' for Active; 'I' for Inactive)
REMARK    1  A    between atoms: O3_3  and  C7_13 
REMARK    2  A    between atoms: O4_4  and  C8_14 
REMARK    3  A    between atoms: O5_5  and  C6_12 
REMARK    4  A    between atoms: O6_6  and  C12_18 
ROOT
HETATM    1  O1  UNK   900      32.671 -44.806 -63.408  1.00  0.00    -0.301 OA
HETATM    2  O2  UNK   900      31.055 -44.136 -65.663  1.00  0.00    -0.299 OA
HETATM    3  C1  UNK   900      32.967 -43.747 -64.228  1.00  0.00     0.119 A 
HETATM    4  C2  UNK   900      32.177 -43.419 -65.330  1.00  0.00     0.146 A 
HETATM    5  C3  UNK   900      31.550 -45.522 -63.741  1.00  0.00     0.146 A 
HETATM    6  C4  UNK   900      30.760 -45.195 -64.843  1.00  0.00     0.146 A 
HETATM    7  C5  UNK   900      34.098 -42.990 -63.926  1.00  0.00    -0.022 A 
HETATM    8  C6  UNK   900      31.211 -46.609 -62.935  1.00  0.00     0.108 A 
HETATM    9  C7  UNK   900      29.628 -45.951 -65.144  1.00  0.00     0.105 A 
HETATM   10  C8  UNK   900      32.515 -42.332 -66.136  1.00  0.00     0.138 A 
HETATM   11  C9  UNK   900      30.080 -47.367 -63.235  1.00  0.00    -0.023 A 
HETATM   12  C10 UNK   900      29.289 -47.038 -64.338  1.00  0.00     0.049 A 
HETATM   13  C11 UNK   900      34.437 -41.903 -64.732  1.00  0.00     0.049 A 
HETATM   14  C12 UNK   900      33.647 -41.575 -65.835  1.00  0.00     0.102 A 
HETATM   15  C13 UNK   900      34.959 -43.322 -62.751  1.00  0.00     0.051 C 
HETATM   16  C14 UNK   900      29.696 -48.534 -62.387  1.00  0.00     0.051 C 
ENDROOT
BRANCH   8  17
HETATM   17  O5  UNK   900      31.985 -46.929 -61.858  1.00  0.00    -0.357 OA
HETATM   18  H9  UNK   900      31.645 -47.713 -61.400  1.00  0.00     0.217 HD
ENDBRANCH   8  17
BRANCH   9  19
HETATM   19  O3  UNK   900      28.847 -45.644 -66.216  1.00  0.00    -0.353 OA
HETATM   20  C15 UNK   900      27.791 -46.550 -66.531  1.00  0.00     0.210 C 
ENDBRANCH   9  19
BRANCH  10  21
HETATM   21  O4  UNK   900      31.746 -42.010 -67.213  1.00  0.00    -0.351 OA
HETATM   22  C16 UNK   900      30.696 -41.068 -67.002  1.00  0.00     0.210 C 
ENDBRANCH  10  21
BRANCH  14  23
HETATM   23  O6  UNK   900      33.993 -40.510 -66.611  1.00  0.00    -0.358 OA
HETATM   24  H10 UNK   900      33.544 -40.584 -67.471  1.00  0.00     0.217 HD
ENDBRANCH  14  23
TORSDOF 4
ENDMDL
MODEL 5
REMARK VINA RESULT:      -6.1      9.969     12.251
REMARK  4 active torsions:
REMARK  status: ('A' for Active; 'I' for Inactive)
REMARK    1  A    between atoms: O3_3  and  C7_13 
REMARK    2  A    between atoms: O4_4  and  C8_14 
REMARK    3  A    between atoms: O5_5  and  C6_12 
REMARK    4  A    between atoms: O6_6  and  C12_18 
ROOT
HETATM    1  O1  UNK   900      36.583 -37.188 -59.773  1.00  0.00    -0.301 OA
HETATM    2  O2  UNK   900      35.516 -38.533 -57.494  1.00  0.00    -0.299 OA
HETATM    3  C1  UNK   900      36.892 -38.493 -59.486  1.00  0.00     0.119 A 
HETATM    4  C2  UNK   900      36.371 -39.151 -58.372  1.00  0.00     0.146 A 
HETATM    5  C3  UNK   900      35.729 -36.571 -58.896  1.00  0.00     0.146 A 
HETATM    6  C4  UNK   900      35.208 -37.228 -57.782  1.00  0.00     0.146 A 
HETATM    7  C5  UNK   900      37.757 -39.161 -60.353  1.00  0.00    -0.022 A 
HETATM    8  C6  UNK   900      35.387 -35.243 -59.150  1.00  0.00     0.108 A 
HETATM    9  C7  UNK   900      34.341 -36.561 -56.916  1.00  0.00     0.105 A 
HETATM   10  C8  UNK   900      36.712 -40.479 -58.118  1.00  0.00     0.138 A 
HETATM   11  C9  UNK   900      34.521 -34.574 -58.285  1.00  0.00    -0.023 A 
HETATM   12  C10 UNK   900      33.999 -35.233 -57.170  1.00  0.00     0.049 A 
HETATM   13  C11 UNK   900      38.099 -40.489 -60.099  1.00  0.00     0.049 A 
HETATM   14  C12 UNK   900      37.578 -41.147 -58.984  1.00  0.00     0.102 A 
HETATM   15  C13 UNK   900      38.328 -38.478 -61.552  1.00  0.00     0.051 C 
HETATM   16  C14 UNK   900      34.140 -33.152 -58.535  1.00  0.00     0.051 C 
ENDROOT
BRANCH   8  17
HETATM   17  O5  UNK   900      35.898 -34.601 -60.239  1.00  0.00    -0.357 OA
HETATM   18  H9  UNK   900      36.648 -35.085 -60.615  1.00  0.00     0.217 HD
ENDBRANCH   8  17
BRANCH   9  19
HETATM   19  O3  UNK   900      33.824 -37.189 -55.825  1.00  0.00    -0.353 OA
HETATM   20  C15 UNK   900      32.521 -37.754 -55.958  1.00  0.00     0.210 C 
ENDBRANCH   9  19
BRANCH  10  21
HETATM   21  O4  UNK   900      36.205 -41.123 -57.030  1.00  0.00    -0.351 OA
HETATM   22  C16 UNK   900      36.983 -41.089 -55.836  1.00  0.00     0.210 C 
ENDBRANCH  10  21
BRANCH  14  23
HETATM   23  O6  UNK   900      37.922 -42.445 -58.752  1.00  0.00    -0.358 OA
HETATM   24  H10 UNK   900      38.346 -42.808 -59.549  1.00  0.00     0.217 HD
ENDBRANCH  14  23
TORSDOF 4
ENDMDL
MODEL 6
REMARK VINA RESULT:      -5.9     32.385     35.581
REMARK  4 active torsions:
REMARK  status: ('A' for Active; 'I' for Inactive)
REMARK    1  A    between atoms: O3_3  and  C7_13 
REMARK    2  A    between atoms: O4_4  and  C8_14 
REMARK    3  A    between atoms: O5_5  and  C6_12 
REMARK    4  A    between atoms: O6_6  and  C12_18 
ROOT
HETATM    1  O1  UNK   900       4.709 -66.478 -49.025  1.00  0.00    -0.301 OA
HETATM    2  O2  UNK   900       7.196 -67.113 -47.778  1.00  0.00    -0.299 OA
HETATM    3  C1  UNK   900       5.896 -66.453 -49.711  1.00  0.00     0.119 A 
HETATM    4  C2  UNK   900       7.112 -66.763 -49.102  1.00  0.00     0.146 A 
HETATM    5  C3  UNK   900       4.793 -66.828 -47.702  1.00  0.00     0.146 A 
HETATM    6  C4  UNK   900       6.008 -67.138 -47.092  1.00  0.00     0.146 A 
HETATM    7  C5  UNK   900       5.858 -66.103 -51.061  1.00  0.00    -0.022 A 
HETATM    8  C6  UNK   900       3.609 -66.866 -46.965  1.00  0.00     0.108 A 
HETATM    9  C7  UNK   900       6.046 -67.489 -45.743  1.00  0.00     0.105 A 
HETATM   10  C8  UNK   900       8.295 -66.725 -49.838  1.00  0.00     0.138 A 
HETATM   11  C9  UNK   900       3.646 -67.217 -45.616  1.00  0.00    -0.023 A 
HETATM   12  C10 UNK   900       4.863 -67.528 -45.006  1.00  0.00     0.049 A 
HETATM   13  C11 UNK   900       7.042 -66.064 -51.798  1.00  0.00     0.049 A 
HETATM   14  C12 UNK   900       8.259 -66.375 -51.188  1.00  0.00     0.102 A 
HETATM   15  C13 UNK   900       4.569 -65.767 -51.735  1.00  0.00     0.051 C 
HETATM   16  C14 UNK   900       2.392 -67.265 -44.806  1.00  0.00     0.051 C 
ENDROOT
BRANCH   8  17
HETATM   17  O5  UNK   900       2.422 -66.561 -47.562  1.00  0.00    -0.357 OA
HETATM   18  H9  UNK   900       2.514 -66.508 -48.525  1.00  0.00     0.217 HD
ENDBRANCH   8  17
BRANCH   9  19
HETATM   19  O3  UNK   900       7.224 -67.795 -45.134  1.00  0.00    -0.353 OA
HETATM   20  C15 UNK   900       7.506 -69.178 -44.922  1.00  0.00     0.210 C 
ENDBRANCH   9  19
BRANCH  10  21
HETATM   21  O4  UNK   900       9.485 -67.027 -49.245  1.00  0.00    -0.351 OA
HETATM   22  C16 UNK   900       9.812 -68.409 -49.118  1.00  0.00     0.210 C 
ENDBRANCH  10  21
BRANCH  14  23
HETATM   23  O6  UNK   900       9.405 -66.332 -51.923  1.00  0.00    -0.358 OA
HETATM   24  H10 UNK   900      10.136 -66.033 -51.356  1.00  0.00     0.217 HD
ENDBRANCH  14  23
TORSDOF 4
ENDMDL
MODEL 7
REMARK VINA RESULT:      -5.9     32.840     35.957
REMARK  4 active torsions:
REMARK  status: ('A' for Active; 'I' for Inactive)
REMARK    1  A    between atoms: O3_3  and  C7_13 
REMARK    2  A    between atoms: O4_4  and  C8_14 
REMARK    3  A    between atoms: O5_5  and  C6_12 
REMARK    4  A    between atoms: O6_6  and  C12_18 
ROOT
HETATM    1  O1  UNK   900       4.622 -68.193 -52.299  1.00  0.00    -0.301 OA
HETATM    2  O2  UNK   900       6.853 -69.810 -51.553  1.00  0.00    -0.299 OA
HETATM    3  C1  UNK   900       5.763 -67.657 -51.759  1.00  0.00     0.119 A 
HETATM    4  C2  UNK   900       6.854 -68.447 -51.394  1.00  0.00     0.146 A 
HETATM    5  C3  UNK   900       4.621 -69.555 -52.458  1.00  0.00     0.146 A 
HETATM    6  C4  UNK   900       5.711 -70.346 -52.093  1.00  0.00     0.146 A 
HETATM    7  C5  UNK   900       5.808 -66.275 -51.581  1.00  0.00    -0.022 A 
HETATM    8  C6  UNK   900       3.481 -70.144 -53.004  1.00  0.00     0.108 A 
HETATM    9  C7  UNK   900       5.667 -71.728 -52.274  1.00  0.00     0.105 A 
HETATM   10  C8  UNK   900       7.994 -67.859 -50.850  1.00  0.00     0.138 A 
HETATM   11  C9  UNK   900       3.435 -71.526 -53.184  1.00  0.00    -0.023 A 
HETATM   12  C10 UNK   900       4.526 -72.317 -52.820  1.00  0.00     0.049 A 
HETATM   13  C11 UNK   900       6.949 -65.686 -51.035  1.00  0.00     0.049 A 
HETATM   14  C12 UNK   900       8.040 -66.477 -50.669  1.00  0.00     0.102 A 
HETATM   15  C13 UNK   900       4.654 -65.409 -51.963  1.00  0.00     0.051 C 
HETATM   16  C14 UNK   900       2.225 -72.180 -53.767  1.00  0.00     0.051 C 
ENDROOT
BRANCH   8  17
HETATM   17  O5  UNK   900       2.415 -69.371 -53.359  1.00  0.00    -0.357 OA
HETATM   18  H9  UNK   900       2.093 -69.598 -54.244  1.00  0.00     0.217 HD
ENDBRANCH   8  17
BRANCH   9  19
HETATM   19  O3  UNK   900       6.723 -72.513 -51.924  1.00  0.00    -0.353 OA
HETATM   20  C15 UNK   900       6.593 -73.280 -50.728  1.00  0.00     0.210 C 
ENDBRANCH   9  19
BRANCH  10  21
HETATM   21  O4  UNK   900       9.061 -68.628 -50.492  1.00  0.00    -0.351 OA
HETATM   22  C16 UNK   900       9.124 -69.056 -49.133  1.00  0.00     0.210 C 
ENDBRANCH  10  21
BRANCH  14  23
HETATM   23  O6  UNK   900       9.146 -65.884 -50.138  1.00  0.00    -0.358 OA
HETATM   24  H10 UNK   900       9.669 -66.554 -49.665  1.00  0.00     0.217 HD
ENDBRANCH  14  23
TORSDOF 4
ENDMDL
MODEL 8
REMARK VINA RESULT:      -5.8     21.121     22.260
REMARK  4 active torsions:
REMARK  status: ('A' for Active; 'I' for Inactive)
REMARK    1  A    between atoms: O3_3  and  C7_13 
REMARK    2  A    between atoms: O4_4  and  C8_14 
REMARK    3  A    between atoms: O5_5  and  C6_12 
REMARK    4  A    between atoms: O6_6  and  C12_18 
ROOT
HETATM    1  O1  UNK   900      21.955 -29.698 -49.752  1.00  0.00    -0.301 OA
HETATM    2  O2  UNK   900      24.601 -30.678 -50.178  1.00  0.00    -0.299 OA
HETATM    3  C1  UNK   900      22.890 -28.988 -50.461  1.00  0.00     0.119 A 
HETATM    4  C2  UNK   900      24.183 -29.466 -50.670  1.00  0.00     0.146 A 
HETATM    5  C3  UNK   900      22.372 -30.908 -49.262  1.00  0.00     0.146 A 
HETATM    6  C4  UNK   900      23.665 -31.388 -49.470  1.00  0.00     0.146 A 
HETATM    7  C5  UNK   900      22.508 -27.751 -50.980  1.00  0.00    -0.022 A 
HETATM    8  C6  UNK   900      21.453 -31.665 -48.534  1.00  0.00     0.108 A 
HETATM    9  C7  UNK   900      24.046 -32.626 -48.953  1.00  0.00     0.105 A 
HETATM   10  C8  UNK   900      25.102 -28.711 -51.397  1.00  0.00     0.138 A 
HETATM   11  C9  UNK   900      21.833 -32.903 -48.016  1.00  0.00    -0.023 A 
HETATM   12  C10 UNK   900      23.128 -33.382 -48.225  1.00  0.00     0.049 A 
HETATM   13  C11 UNK   900      23.427 -26.994 -51.707  1.00  0.00     0.049 A 
HETATM   14  C12 UNK   900      24.722 -27.473 -51.916  1.00  0.00     0.102 A 
HETATM   15  C13 UNK   900      21.129 -27.218 -50.770  1.00  0.00     0.051 C 
HETATM   16  C14 UNK   900      20.868 -33.732 -47.234  1.00  0.00     0.051 C 
ENDROOT
BRANCH   8  17
HETATM   17  O5  UNK   900      20.189 -31.196 -48.330  1.00  0.00    -0.357 OA
HETATM   18  H9  UNK   900      19.827 -30.794 -49.135  1.00  0.00     0.217 HD
ENDBRANCH   8  17
BRANCH   9  19
HETATM   19  O3  UNK   900      25.305 -33.107 -49.148  1.00  0.00    -0.353 OA
HETATM   20  C15 UNK   900      25.427 -34.330 -49.871  1.00  0.00     0.210 C 
ENDBRANCH   9  19
BRANCH  10  21
HETATM   21  O4  UNK   900      26.366 -29.176 -51.602  1.00  0.00    -0.351 OA
HETATM   22  C16 UNK   900      27.387 -28.676 -50.741  1.00  0.00     0.210 C 
ENDBRANCH  10  21
BRANCH  14  23
HETATM   23  O6  UNK   900      25.605 -26.721 -52.629  1.00  0.00    -0.358 OA
HETATM   24  H10 UNK   900      25.373 -25.781 -52.532  1.00  0.00     0.217 HD
ENDBRANCH  14  23
TORSDOF 4
ENDMDL
MODEL 9
REMARK VINA RESULT:      -5.8     32.248     35.567
REMARK  4 active torsions:
REMARK  status: ('A' for Active; 'I' for Inactive)
REMARK    1  A    between atoms: O3_3  and  C7_13 
REMARK    2  A    between atoms: O4_4  and  C8_14 
REMARK    3  A    between atoms: O5_5  and  C6_12 
REMARK    4  A    between atoms: O6_6  and  C12_18 
ROOT
HETATM    1  O1  UNK   900       5.870 -66.221 -51.314  1.00  0.00    -0.301 OA
HETATM    2  O2  UNK   900       5.616 -67.370 -48.714  1.00  0.00    -0.299 OA
HETATM    3  C1  UNK   900       6.959 -66.636 -50.591  1.00  0.00     0.119 A 
HETATM    4  C2  UNK   900       6.835 -67.197 -49.320  1.00  0.00     0.146 A 
HETATM    5  C3  UNK   900       4.652 -66.394 -50.709  1.00  0.00     0.146 A 
HETATM    6  C4  UNK   900       4.527 -66.955 -49.438  1.00  0.00     0.146 A 
HETATM    7  C5  UNK   900       8.219 -66.480 -51.169  1.00  0.00    -0.022 A 
HETATM    8  C6  UNK   900       3.516 -65.986 -51.409  1.00  0.00     0.108 A 
HETATM    9  C7  UNK   900       3.267 -67.112 -48.861  1.00  0.00     0.105 A 
HETATM   10  C8  UNK   900       7.970 -67.605 -48.620  1.00  0.00     0.138 A 
HETATM   11  C9  UNK   900       2.256 -66.142 -50.833  1.00  0.00    -0.023 A 
HETATM   12  C10 UNK   900       2.132 -66.704 -49.561  1.00  0.00     0.049 A 
HETATM   13  C11 UNK   900       9.354 -66.888 -50.469  1.00  0.00     0.049 A 
HETATM   14  C12 UNK   900       9.230 -67.449 -49.196  1.00  0.00     0.102 A 
HETATM   15  C13 UNK   900       8.376 -65.882 -52.528  1.00  0.00     0.051 C 
HETATM   16  C14 UNK   900       1.025 -65.714 -51.562  1.00  0.00     0.051 C 
ENDROOT
BRANCH   8  17
HETATM   17  O5  UNK   900       3.638 -65.437 -52.651  1.00  0.00    -0.357 OA
HETATM   18  H9  UNK   900       3.568 -66.110 -53.344  1.00  0.00     0.217 HD
ENDBRANCH   8  17
BRANCH   9  19
HETATM   19  O3  UNK   900       3.130 -67.658 -47.622  1.00  0.00    -0.353 OA
HETATM   20  C15 UNK   900       2.998 -66.755 -46.525  1.00  0.00     0.210 C 
ENDBRANCH   9  19
BRANCH  10  21
HETATM   21  O4  UNK   900       7.852 -68.153 -47.378  1.00  0.00    -0.351 OA
HETATM   22  C16 UNK   900       7.773 -69.575 -47.302  1.00  0.00     0.210 C 
ENDBRANCH  10  21
BRANCH  14  23
HETATM   23  O6  UNK   900      10.351 -67.842 -48.528  1.00  0.00    -0.358 OA
HETATM   24  H10 UNK   900      11.054 -68.034 -49.171  1.00  0.00     0.217 HD
ENDBRANCH  14  23
TORSDOF 4
ENDMDL
