MODEL 1
REMARK VINA RESULT:      -7.0      0.000      0.000
REMARK  4 active torsions:
REMARK  status: ('A' for Active; 'I' for Inactive)
REMARK    1  A    between atoms: O2_2  and  C2_8 
REMARK    2  A    between atoms: O3_3  and  C3_9 
REMARK    3  A    between atoms: O4_4  and  C14_20 
REMARK    4  A    between atoms: C12_18  and  C14_20 
ROOT
HETATM    1  O1  UNK   900      26.080 -20.127 -71.448  1.00  0.00    -0.338 OA
HETATM    2  N1  UNK   900      23.102 -23.523 -73.481  1.00  0.00    -0.364 N 
HETATM    3  C1  UNK   900      25.071 -19.565 -70.588  1.00  0.00     0.089 C 
HETATM    4  C2  UNK   900      24.105 -20.648 -70.052  1.00  0.00     0.185 C 
HETATM    5  C3  UNK   900      23.463 -21.462 -71.175  1.00  0.00     0.188 C 
HETATM    6  C4  UNK   900      24.449 -21.757 -72.271  1.00  0.00     0.034 A 
HETATM    7  C5  UNK   900      25.683 -21.086 -72.345  1.00  0.00     0.081 A 
HETATM    8  C6  UNK   900      24.203 -22.717 -73.275  1.00  0.00     0.055 A 
HETATM    9  C7  UNK   900      25.845 -18.910 -69.429  1.00  0.00     0.049 C 
HETATM   10  C8  UNK   900      24.342 -18.446 -71.353  1.00  0.00     0.049 C 
HETATM   11  C9  UNK   900      25.116 -23.018 -74.289  1.00  0.00     0.010 A 
HETATM   12  C10 UNK   900      26.616 -21.379 -73.342  1.00  0.00     0.038 A 
HETATM   13  C11 UNK   900      26.346 -22.339 -74.321  1.00  0.00     0.017 A 
HETATM   14  C12 UNK   900      24.526 -24.024 -75.106  1.00  0.00     0.065 A 
HETATM   15  C13 UNK   900      23.287 -24.312 -74.584  1.00  0.00     0.107 A 
HETATM   16  H12 UNK   900      22.274 -23.528 -72.902  1.00  0.00     0.165 HD
ENDROOT
BRANCH  14  17
HETATM   17  C14 UNK   900      25.077 -24.657 -76.270  1.00  0.00     0.178 C 
HETATM   18  O5  UNK   900      26.197 -24.430 -76.768  1.00  0.00    -0.646 OA
BRANCH  17  19
HETATM   19  O4  UNK   900      24.238 -25.582 -76.830  1.00  0.00    -0.773 OA
HETATM   20  H15 UNK   900      23.955 -26.257 -76.178  1.00  0.00     0.167 HD
ENDBRANCH  17  19
ENDBRANCH  14  17
BRANCH   5  21
HETATM   21  O3  UNK   900      22.364 -20.756 -71.741  1.00  0.00    -0.388 OA
HETATM   22  H13 UNK   900      21.587 -21.338 -71.698  1.00  0.00     0.210 HD
ENDBRANCH   5  21
BRANCH   4  23
HETATM   23  O2  UNK   900      24.807 -21.573 -69.216  1.00  0.00    -0.390 OA
HETATM   24  H11 UNK   900      24.632 -21.327 -68.292  1.00  0.00     0.210 HD
ENDBRANCH   4  23
TORSDOF 4
ENDMDL
MODEL 2
REMARK VINA RESULT:      -6.6     24.512     25.512
REMARK  4 active torsions:
REMARK  status: ('A' for Active; 'I' for Inactive)
REMARK    1  A    between atoms: O2_2  and  C2_8 
REMARK    2  A    between atoms: O3_3  and  C3_9 
REMARK    3  A    between atoms: O4_4  and  C14_20 
REMARK    4  A    between atoms: C12_18  and  C14_20 
ROOT
HETATM    1  O1  UNK   900      37.908 -39.346 -56.509  1.00  0.00    -0.338 OA
HETATM    2  N1  UNK   900      33.274 -37.701 -57.109  1.00  0.00    -0.364 N 
HETATM    3  C1  UNK   900      37.538 -40.499 -55.729  1.00  0.00     0.089 C 
HETATM    4  C2  UNK   900      36.204 -41.113 -56.210  1.00  0.00     0.185 C 
HETATM    5  C3  UNK   900      35.067 -40.091 -56.233  1.00  0.00     0.188 C 
HETATM    6  C4  UNK   900      35.542 -38.754 -56.727  1.00  0.00     0.034 A 
HETATM    7  C5  UNK   900      36.913 -38.460 -56.837  1.00  0.00     0.081 A 
HETATM    8  C6  UNK   900      34.654 -37.727 -57.110  1.00  0.00     0.055 A 
HETATM    9  C7  UNK   900      38.693 -41.501 -55.915  1.00  0.00     0.049 C 
HETATM   10  C8  UNK   900      37.505 -40.095 -54.244  1.00  0.00     0.049 C 
HETATM   11  C9  UNK   900      35.078 -36.486 -57.590  1.00  0.00     0.010 A 
HETATM   12  C10 UNK   900      37.360 -37.230 -57.326  1.00  0.00     0.038 A 
HETATM   13  C11 UNK   900      36.456 -36.234 -57.703  1.00  0.00     0.017 A 
HETATM   14  C12 UNK   900      33.911 -35.719 -57.872  1.00  0.00     0.065 A 
HETATM   15  C13 UNK   900      32.819 -36.494 -57.564  1.00  0.00     0.107 A 
HETATM   16  H12 UNK   900      32.684 -38.464 -56.811  1.00  0.00     0.165 HD
ENDROOT
BRANCH  14  17
HETATM   17  C14 UNK   900      33.833 -34.380 -58.384  1.00  0.00     0.178 C 
HETATM   18  O5  UNK   900      33.679 -33.344 -57.710  1.00  0.00    -0.646 OA
BRANCH  17  19
HETATM   19  O4  UNK   900      33.946 -34.316 -59.747  1.00  0.00    -0.773 OA
HETATM   20  H15 UNK   900      33.840 -33.399 -60.077  1.00  0.00     0.167 HD
ENDBRANCH  17  19
ENDBRANCH  14  17
BRANCH   5  21
HETATM   21  O3  UNK   900      34.522 -39.919 -54.928  1.00  0.00    -0.388 OA
HETATM   22  H13 UNK   900      35.252 -39.674 -54.335  1.00  0.00     0.210 HD
ENDBRANCH   5  21
BRANCH   4  23
HETATM   23  O2  UNK   900      36.338 -41.616 -57.543  1.00  0.00    -0.390 OA
HETATM   24  H11 UNK   900      35.595 -42.221 -57.705  1.00  0.00     0.210 HD
ENDBRANCH   4  23
TORSDOF 4
ENDMDL
MODEL 3
REMARK VINA RESULT:      -6.5     19.736     20.745
REMARK  4 active torsions:
REMARK  status: ('A' for Active; 'I' for Inactive)
REMARK    1  A    between atoms: O2_2  and  C2_8 
REMARK    2  A    between atoms: O3_3  and  C3_9 
REMARK    3  A    between atoms: O4_4  and  C14_20 
REMARK    4  A    between atoms: C12_18  and  C14_20 
ROOT
HETATM    1  O1  UNK   900      37.617 -31.189 -60.153  1.00  0.00    -0.338 OA
HETATM    2  N1  UNK   900      33.668 -33.376 -58.111  1.00  0.00    -0.364 N 
HETATM    3  C1  UNK   900      37.064 -29.859 -60.115  1.00  0.00     0.089 C 
HETATM    4  C2  UNK   900      36.208 -29.628 -58.849  1.00  0.00     0.185 C 
HETATM    5  C3  UNK   900      35.104 -30.675 -58.694  1.00  0.00     0.188 C 
HETATM    6  C4  UNK   900      35.589 -32.044 -59.079  1.00  0.00     0.034 A 
HETATM    7  C5  UNK   900      36.798 -32.223 -59.774  1.00  0.00     0.081 A 
HETATM    8  C6  UNK   900      34.873 -33.218 -58.766  1.00  0.00     0.055 A 
HETATM    9  C7  UNK   900      38.281 -28.915 -60.124  1.00  0.00     0.049 C 
HETATM   10  C8  UNK   900      36.278 -29.619 -61.416  1.00  0.00     0.049 C 
HETATM   11  C9  UNK   900      35.318 -34.500 -59.098  1.00  0.00     0.010 A 
HETATM   12  C10 UNK   900      37.269 -33.496 -60.106  1.00  0.00     0.038 A 
HETATM   13  C11 UNK   900      36.540 -34.641 -59.778  1.00  0.00     0.017 A 
HETATM   14  C12 UNK   900      34.343 -35.424 -58.625  1.00  0.00     0.065 A 
HETATM   15  C13 UNK   900      33.341 -34.701 -58.024  1.00  0.00     0.107 A 
HETATM   16  H12 UNK   900      33.106 -32.618 -57.750  1.00  0.00     0.165 HD
ENDROOT
BRANCH  14  17
HETATM   17  C14 UNK   900      34.355 -36.856 -58.729  1.00  0.00     0.178 C 
HETATM   18  O5  UNK   900      35.208 -37.621 -58.239  1.00  0.00    -0.646 OA
BRANCH  17  19
HETATM   19  O4  UNK   900      33.301 -37.353 -59.446  1.00  0.00    -0.773 OA
HETATM   20  H15 UNK   900      32.599 -37.707 -58.861  1.00  0.00     0.167 HD
ENDBRANCH  17  19
ENDBRANCH  14  17
BRANCH   5  21
HETATM   21  O3  UNK   900      33.986 -30.349 -59.515  1.00  0.00    -0.388 OA
HETATM   22  H13 UNK   900      34.107 -30.798 -60.368  1.00  0.00     0.210 HD
ENDBRANCH   5  21
BRANCH   4  23
HETATM   23  O2  UNK   900      37.022 -29.706 -57.675  1.00  0.00    -0.390 OA
HETATM   24  H11 UNK   900      37.780 -30.279 -57.879  1.00  0.00     0.210 HD
ENDBRANCH   4  23
TORSDOF 4
ENDMDL
MODEL 4
REMARK VINA RESULT:      -6.2     52.463     53.866
REMARK  4 active torsions:
REMARK  status: ('A' for Active; 'I' for Inactive)
REMARK    1  A    between atoms: O2_2  and  C2_8 
REMARK    2  A    between atoms: O3_3  and  C3_9 
REMARK    3  A    between atoms: O4_4  and  C14_20 
REMARK    4  A    between atoms: C12_18  and  C14_20 
ROOT
HETATM    1  O1  UNK   900       7.460 -67.541 -48.930  1.00  0.00    -0.338 OA
HETATM    2  N1  UNK   900       4.236 -66.082 -52.397  1.00  0.00    -0.364 N 
HETATM    3  C1  UNK   900       8.455 -68.004 -49.862  1.00  0.00     0.089 C 
HETATM    4  C2  UNK   900       8.520 -67.111 -51.123  1.00  0.00     0.185 C 
HETATM    5  C3  UNK   900       7.161 -66.973 -51.810  1.00  0.00     0.188 C 
HETATM    6  C4  UNK   900       6.051 -66.840 -50.806  1.00  0.00     0.034 A 
HETATM    7  C5  UNK   900       6.257 -67.125 -49.445  1.00  0.00     0.081 A 
HETATM    8  C6  UNK   900       4.752 -66.421 -51.163  1.00  0.00     0.055 A 
HETATM    9  C7  UNK   900       9.787 -67.951 -49.093  1.00  0.00     0.049 C 
HETATM   10  C8  UNK   900       8.167 -69.479 -50.194  1.00  0.00     0.049 C 
HETATM   11  C9  UNK   900       3.714 -66.272 -50.240  1.00  0.00     0.010 A 
HETATM   12  C10 UNK   900       5.238 -66.972 -48.502  1.00  0.00     0.038 A 
HETATM   13  C11 UNK   900       3.962 -66.550 -48.885  1.00  0.00     0.017 A 
HETATM   14  C12 UNK   900       2.565 -65.837 -50.960  1.00  0.00     0.065 A 
HETATM   15  C13 UNK   900       2.919 -65.731 -52.285  1.00  0.00     0.107 A 
HETATM   16  H12 UNK   900       4.758 -66.094 -53.262  1.00  0.00     0.165 HD
ENDROOT
BRANCH  14  17
HETATM   17  C14 UNK   900       1.255 -65.549 -50.450  1.00  0.00     0.178 C 
HETATM   18  O5  UNK   900       0.469 -66.369 -49.937  1.00  0.00    -0.646 OA
BRANCH  17  19
HETATM   19  O4  UNK   900       0.907 -64.230 -50.571  1.00  0.00    -0.773 OA
HETATM   20  H15 UNK   900      -0.063 -64.103 -50.495  1.00  0.00     0.167 HD
ENDBRANCH  17  19
ENDBRANCH  14  17
BRANCH   5  21
HETATM   21  O3  UNK   900       6.894 -68.111 -52.624  1.00  0.00    -0.388 OA
HETATM   22  H13 UNK   900       6.369 -67.811 -53.385  1.00  0.00     0.210 HD
ENDBRANCH   5  21
BRANCH   4  23
HETATM   23  O2  UNK   900       8.948 -65.791 -50.777  1.00  0.00    -0.390 OA
HETATM   24  H11 UNK   900       9.007 -65.744 -49.808  1.00  0.00     0.210 HD
ENDBRANCH   4  23
TORSDOF 4
ENDMDL
MODEL 5
REMARK VINA RESULT:      -6.0     15.299     16.446
REMARK  4 active torsions:
REMARK  status: ('A' for Active; 'I' for Inactive)
REMARK    1  A    between atoms: O2_2  and  C2_8 
REMARK    2  A    between atoms: O3_3  and  C3_9 
REMARK    3  A    between atoms: O4_4  and  C14_20 
REMARK    4  A    between atoms: C12_18  and  C14_20 
ROOT
HETATM    1  O1  UNK   900      10.723 -26.543 -76.621  1.00  0.00    -0.338 OA
HETATM    2  N1  UNK   900      10.708 -28.359 -81.230  1.00  0.00    -0.364 N 
HETATM    3  C1  UNK   900       9.943 -27.614 -76.056  1.00  0.00     0.089 C 
HETATM    4  C2  UNK   900      10.280 -28.976 -76.706  1.00  0.00     0.185 C 
HETATM    5  C3  UNK   900      10.133 -28.947 -78.227  1.00  0.00     0.188 C 
HETATM    6  C4  UNK   900      10.635 -27.653 -78.802  1.00  0.00     0.034 A 
HETATM    7  C5  UNK   900      10.900 -26.542 -77.982  1.00  0.00     0.081 A 
HETATM    8  C6  UNK   900      10.875 -27.478 -80.181  1.00  0.00     0.055 A 
HETATM    9  C7  UNK   900      10.299 -27.627 -74.557  1.00  0.00     0.049 C 
HETATM   10  C8  UNK   900       8.452 -27.251 -76.178  1.00  0.00     0.049 C 
HETATM   11  C9  UNK   900      11.361 -26.289 -80.731  1.00  0.00     0.010 A 
HETATM   12  C10 UNK   900      11.397 -25.347 -78.507  1.00  0.00     0.038 A 
HETATM   13  C11 UNK   900      11.630 -25.205 -79.878  1.00  0.00     0.017 A 
HETATM   14  C12 UNK   900      11.476 -26.487 -82.136  1.00  0.00     0.065 A 
HETATM   15  C13 UNK   900      11.065 -27.769 -82.412  1.00  0.00     0.107 A 
HETATM   16  H12 UNK   900      10.366 -29.306 -81.138  1.00  0.00     0.165 HD
ENDROOT
BRANCH  14  17
HETATM   17  C14 UNK   900      11.930 -25.554 -83.128  1.00  0.00     0.178 C 
HETATM   18  O5  UNK   900      11.284 -25.163 -84.119  1.00  0.00    -0.646 OA
BRANCH  17  19
HETATM   19  O4  UNK   900      13.199 -25.096 -82.897  1.00  0.00    -0.773 OA
HETATM   20  H15 UNK   900      13.232 -24.497 -82.121  1.00  0.00     0.167 HD
ENDBRANCH  17  19
ENDBRANCH  14  17
BRANCH   5  21
HETATM   21  O3  UNK   900       8.767 -29.102 -78.600  1.00  0.00    -0.388 OA
HETATM   22  H13 UNK   900       8.578 -30.055 -78.635  1.00  0.00     0.210 HD
ENDBRANCH   5  21
BRANCH   4  23
HETATM   23  O2  UNK   900      11.635 -29.340 -76.426  1.00  0.00    -0.390 OA
HETATM   24  H11 UNK   900      11.618 -30.159 -75.902  1.00  0.00     0.210 HD
ENDBRANCH   4  23
TORSDOF 4
ENDMDL
MODEL 6
REMARK VINA RESULT:      -5.6     51.303     52.837
REMARK  4 active torsions:
REMARK  status: ('A' for Active; 'I' for Inactive)
REMARK    1  A    between atoms: O2_2  and  C2_8 
REMARK    2  A    between atoms: O3_3  and  C3_9 
REMARK    3  A    between atoms: O4_4  and  C14_20 
REMARK    4  A    between atoms: C12_18  and  C14_20 
ROOT
HETATM    1  O1  UNK   900      26.213 -72.380 -53.451  1.00  0.00    -0.338 OA
HETATM    2  N1  UNK   900      22.816 -70.195 -56.318  1.00  0.00    -0.364 N 
HETATM    3  C1  UNK   900      27.343 -71.950 -54.235  1.00  0.00     0.089 C 
HETATM    4  C2  UNK   900      27.134 -70.531 -54.811  1.00  0.00     0.185 C 
HETATM    5  C3  UNK   900      25.842 -70.414 -55.620  1.00  0.00     0.188 C 
HETATM    6  C4  UNK   900      24.720 -71.175 -54.971  1.00  0.00     0.034 A 
HETATM    7  C5  UNK   900      24.962 -72.099 -53.939  1.00  0.00     0.081 A 
HETATM    8  C6  UNK   900      23.371 -71.005 -55.349  1.00  0.00     0.055 A 
HETATM    9  C7  UNK   900      28.539 -71.969 -53.265  1.00  0.00     0.049 C 
HETATM   10  C8  UNK   900      27.610 -73.001 -55.326  1.00  0.00     0.049 C 
HETATM   11  C9  UNK   900      22.313 -71.688 -54.744  1.00  0.00     0.010 A 
HETATM   12  C10 UNK   900      23.919 -72.784 -53.311  1.00  0.00     0.038 A 
HETATM   13  C11 UNK   900      22.593 -72.592 -53.704  1.00  0.00     0.017 A 
HETATM   14  C12 UNK   900      21.113 -71.263 -55.382  1.00  0.00     0.065 A 
HETATM   15  C13 UNK   900      21.456 -70.346 -56.346  1.00  0.00     0.107 A 
HETATM   16  H12 UNK   900      23.340 -69.579 -56.924  1.00  0.00     0.165 HD
ENDROOT
BRANCH  14  17
HETATM   17  C14 UNK   900      19.768 -71.682 -55.109  1.00  0.00     0.178 C 
HETATM   18  O5  UNK   900      19.292 -72.813 -55.326  1.00  0.00    -0.646 OA
BRANCH  17  19
HETATM   19  O4  UNK   900      18.996 -70.694 -54.559  1.00  0.00    -0.773 OA
HETATM   20  H15 UNK   900      19.362 -70.381 -53.705  1.00  0.00     0.167 HD
ENDBRANCH  17  19
ENDBRANCH  14  17
BRANCH   5  21
HETATM   21  O3  UNK   900      26.028 -70.926 -56.936  1.00  0.00    -0.388 OA
HETATM   22  H13 UNK   900      25.312 -71.561 -57.108  1.00  0.00     0.210 HD
ENDBRANCH   5  21
BRANCH   4  23
HETATM   23  O2  UNK   900      27.051 -69.570 -53.754  1.00  0.00    -0.390 OA
HETATM   24  H11 UNK   900      26.158 -69.186 -53.774  1.00  0.00     0.210 HD
ENDBRANCH   4  23
TORSDOF 4
ENDMDL
MODEL 7
REMARK VINA RESULT:      -5.6     46.508     47.949
REMARK  4 active torsions:
REMARK  status: ('A' for Active; 'I' for Inactive)
REMARK    1  A    between atoms: O2_2  and  C2_8 
REMARK    2  A    between atoms: O3_3  and  C3_9 
REMARK    3  A    between atoms: O4_4  and  C14_20 
REMARK    4  A    between atoms: C12_18  and  C14_20 
ROOT
HETATM    1  O1  UNK   900       6.107 -65.112 -66.768  1.00  0.00    -0.338 OA
HETATM    2  N1  UNK   900       6.158 -65.341 -61.820  1.00  0.00    -0.364 N 
HETATM    3  C1  UNK   900       7.047 -66.187 -66.959  1.00  0.00     0.089 C 
HETATM    4  C2  UNK   900       6.865 -67.303 -65.904  1.00  0.00     0.185 C 
HETATM    5  C3  UNK   900       6.939 -66.770 -64.473  1.00  0.00     0.188 C 
HETATM    6  C4  UNK   900       6.244 -65.444 -64.346  1.00  0.00     0.034 A 
HETATM    7  C5  UNK   900       5.871 -64.701 -65.480  1.00  0.00     0.081 A 
HETATM    8  C6  UNK   900       5.922 -64.873 -63.096  1.00  0.00     0.055 A 
HETATM    9  C7  UNK   900       6.762 -66.727 -68.372  1.00  0.00     0.049 C 
HETATM   10  C8  UNK   900       8.469 -65.600 -66.961  1.00  0.00     0.049 C 
HETATM   11  C9  UNK   900       5.259 -63.652 -62.959  1.00  0.00     0.010 A 
HETATM   12  C10 UNK   900       5.197 -63.483 -65.367  1.00  0.00     0.038 A 
HETATM   13  C11 UNK   900       4.887 -62.945 -64.116  1.00  0.00     0.017 A 
HETATM   14  C12 UNK   900       5.110 -63.404 -61.565  1.00  0.00     0.065 A 
HETATM   15  C13 UNK   900       5.674 -64.461 -60.891  1.00  0.00     0.107 A 
HETATM   16  H12 UNK   900       6.626 -66.209 -61.601  1.00  0.00     0.165 HD
ENDROOT
BRANCH  14  17
HETATM   17  C14 UNK   900       4.492 -62.277 -60.926  1.00  0.00     0.178 C 
HETATM   18  O5  UNK   900       3.721 -61.459 -61.464  1.00  0.00    -0.646 OA
BRANCH  17  19
HETATM   19  O4  UNK   900       4.828 -62.155 -59.604  1.00  0.00    -0.773 OA
HETATM   20  H15 UNK   900       5.730 -62.496 -59.426  1.00  0.00     0.167 HD
ENDBRANCH  17  19
ENDBRANCH  14  17
BRANCH   5  21
HETATM   21  O3  UNK   900       8.296 -66.606 -64.071  1.00  0.00    -0.388 OA
HETATM   22  H13 UNK   900       8.382 -65.718 -63.685  1.00  0.00     0.210 HD
ENDBRANCH   5  21
BRANCH   4  23
HETATM   23  O2  UNK   900       5.584 -67.924 -66.051  1.00  0.00    -0.390 OA
HETATM   24  H11 UNK   900       5.668 -68.847 -65.759  1.00  0.00     0.210 HD
ENDBRANCH   4  23
TORSDOF 4
ENDMDL
MODEL 8
REMARK VINA RESULT:      -5.6     50.854     52.485
REMARK  4 active torsions:
REMARK  status: ('A' for Active; 'I' for Inactive)
REMARK    1  A    between atoms: O2_2  and  C2_8 
REMARK    2  A    between atoms: O3_3  and  C3_9 
REMARK    3  A    between atoms: O4_4  and  C14_20 
REMARK    4  A    between atoms: C12_18  and  C14_20 
ROOT
HETATM    1  O1  UNK   900      26.183 -72.924 -54.144  1.00  0.00    -0.338 OA
HETATM    2  N1  UNK   900      23.959 -69.826 -57.305  1.00  0.00    -0.364 N 
HETATM    3  C1  UNK   900      27.205 -71.991 -53.743  1.00  0.00     0.089 C 
HETATM    4  C2  UNK   900      26.665 -70.544 -53.673  1.00  0.00     0.185 C 
HETATM    5  C3  UNK   900      26.016 -70.100 -54.984  1.00  0.00     0.188 C 
HETATM    6  C4  UNK   900      25.215 -71.211 -55.602  1.00  0.00     0.034 A 
HETATM    7  C5  UNK   900      25.339 -72.539 -55.155  1.00  0.00     0.081 A 
HETATM    8  C6  UNK   900      24.296 -70.992 -56.650  1.00  0.00     0.055 A 
HETATM    9  C7  UNK   900      27.662 -72.465 -52.351  1.00  0.00     0.049 C 
HETATM   10  C8  UNK   900      28.401 -72.133 -54.700  1.00  0.00     0.049 C 
HETATM   11  C9  UNK   900      23.529 -72.009 -57.223  1.00  0.00     0.010 A 
HETATM   12  C10 UNK   900      24.573 -73.570 -55.704  1.00  0.00     0.038 A 
HETATM   13  C11 UNK   900      23.668 -73.322 -56.739  1.00  0.00     0.017 A 
HETATM   14  C12 UNK   900      22.727 -71.415 -58.239  1.00  0.00     0.065 A 
HETATM   15  C13 UNK   900      23.016 -70.072 -58.265  1.00  0.00     0.107 A 
HETATM   16  H12 UNK   900      24.355 -68.918 -57.106  1.00  0.00     0.165 HD
ENDROOT
BRANCH  14  17
HETATM   17  C14 UNK   900      21.777 -72.054 -59.104  1.00  0.00     0.178 C 
HETATM   18  O5  UNK   900      21.804 -72.056 -60.350  1.00  0.00    -0.646 OA
BRANCH  17  19
HETATM   19  O4  UNK   900      20.778 -72.700 -58.426  1.00  0.00    -0.773 OA
HETATM   20  H15 UNK   900      20.808 -72.505 -57.465  1.00  0.00     0.167 HD
ENDBRANCH  17  19
ENDBRANCH  14  17
BRANCH   5  21
HETATM   21  O3  UNK   900      27.008 -69.690 -55.920  1.00  0.00    -0.388 OA
HETATM   22  H13 UNK   900      27.088 -68.723 -55.858  1.00  0.00     0.210 HD
ENDBRANCH   5  21
BRANCH   4  23
HETATM   23  O2  UNK   900      25.665 -70.432 -52.655  1.00  0.00    -0.390 OA
HETATM   24  H11 UNK   900      25.183 -69.603 -52.806  1.00  0.00     0.210 HD
ENDBRANCH   4  23
TORSDOF 4
ENDMDL
MODEL 9
REMARK VINA RESULT:      -5.6     34.943     38.420
REMARK  4 active torsions:
REMARK  status: ('A' for Active; 'I' for Inactive)
REMARK    1  A    between atoms: O2_2  and  C2_8 
REMARK    2  A    between atoms: O3_3  and  C3_9 
REMARK    3  A    between atoms: O4_4  and  C14_20 
REMARK    4  A    between atoms: C12_18  and  C14_20 
ROOT
HETATM    1  O1  UNK   900      12.974 -50.254 -97.602  1.00  0.00    -0.338 OA
HETATM    2  N1  UNK   900       9.190 -47.870 -95.472  1.00  0.00    -0.364 N 
HETATM    3  C1  UNK   900      12.520 -51.572 -97.238  1.00  0.00     0.089 C 
HETATM    4  C2  UNK   900      10.979 -51.683 -97.287  1.00  0.00     0.185 C 
HETATM    5  C3  UNK   900      10.291 -50.621 -96.429  1.00  0.00     0.188 C 
HETATM    6  C4  UNK   900      10.990 -49.294 -96.535  1.00  0.00     0.034 A 
HETATM    7  C5  UNK   900      12.270 -49.185 -97.107  1.00  0.00     0.081 A 
HETATM    8  C6  UNK   900      10.409 -48.092 -96.079  1.00  0.00     0.055 A 
HETATM    9  C7  UNK   900      13.164 -52.521 -98.266  1.00  0.00     0.049 C 
HETATM   10  C8  UNK   900      13.097 -51.923 -95.855  1.00  0.00     0.049 C 
HETATM   11  C9  UNK   900      11.035 -46.848 -96.187  1.00  0.00     0.010 A 
HETATM   12  C10 UNK   900      12.910 -47.951 -97.237  1.00  0.00     0.038 A 
HETATM   13  C11 UNK   900      12.308 -46.776 -96.780  1.00  0.00     0.017 A 
HETATM   14  C12 UNK   900      10.155 -45.880 -95.626  1.00  0.00     0.065 A 
HETATM   15  C13 UNK   900       9.030 -46.540 -95.193  1.00  0.00     0.107 A 
HETATM   16  H12 UNK   900       8.512 -48.588 -95.260  1.00  0.00     0.165 HD
ENDROOT
BRANCH  14  17
HETATM   17  C14 UNK   900      10.356 -44.463 -95.507  1.00  0.00     0.178 C 
HETATM   18  O5  UNK   900      10.170 -43.618 -96.403  1.00  0.00    -0.646 OA
BRANCH  17  19
HETATM   19  O4  UNK   900      10.790 -44.082 -94.266  1.00  0.00    -0.773 OA
HETATM   20  H15 UNK   900      10.045 -43.813 -93.688  1.00  0.00     0.167 HD
ENDBRANCH  17  19
ENDBRANCH  14  17
BRANCH   5  21
HETATM   21  O3  UNK   900      10.280 -51.012 -95.060  1.00  0.00    -0.388 OA
HETATM   22  H13 UNK   900      10.571 -50.249 -94.534  1.00  0.00     0.210 HD
ENDBRANCH   5  21
BRANCH   4  23
HETATM   23  O2  UNK   900      10.509 -51.505 -98.626  1.00  0.00    -0.390 OA
HETATM   24  H11 UNK   900      11.227 -51.762 -99.228  1.00  0.00     0.210 HD
ENDBRANCH   4  23
TORSDOF 4
ENDMDL
