MODEL 1
REMARK VINA RESULT:      -6.8      0.000      0.000
REMARK  8 active torsions:
REMARK  status: ('A' for Active; 'I' for Inactive)
REMARK    1  A    between atoms: O2_2  and  C5_14 
REMARK    2  A    between atoms: O2_2  and  C9_18 
REMARK    3  A    between atoms: O3_3  and  C1_10 
REMARK    4  A    between atoms: O4_4  and  C2_11 
REMARK    5  A    between atoms: O5_5  and  C3_12 
REMARK    6  A    between atoms: O7_7  and  C7_16 
REMARK    7  A    between atoms: O8_8  and  C12_21 
REMARK    8  A    between atoms: C4_13  and  C7_16 
ROOT
HETATM    1  O2  UNK   900      22.015 -20.192 -73.964  1.00  0.00    -0.317 OA
ENDROOT
BRANCH   1   2
HETATM    2  C5  UNK   900      23.187 -19.888 -73.209  1.00  0.00     0.298 C 
HETATM    3  O1  UNK   900      24.324 -19.877 -74.069  1.00  0.00    -0.348 OA
HETATM    4  C4  UNK   900      25.532 -19.554 -73.378  1.00  0.00     0.179 C 
HETATM    5  C1  UNK   900      25.836 -20.626 -72.329  1.00  0.00     0.183 C 
HETATM    6  C2  UNK   900      24.659 -20.794 -71.368  1.00  0.00     0.183 C 
HETATM    7  C3  UNK   900      23.343 -20.959 -72.128  1.00  0.00     0.205 C 
BRANCH   4   8
HETATM    8  C7  UNK   900      26.643 -19.449 -74.418  1.00  0.00     0.198 C 
BRANCH   8   9
HETATM    9  O7  UNK   900      27.364 -20.667 -74.431  1.00  0.00    -0.398 OA
HETATM   10  H20 UNK   900      28.077 -20.573 -75.085  1.00  0.00     0.209 HD
ENDBRANCH   8   9
ENDBRANCH   4   8
BRANCH   5  11
HETATM   11  O3  UNK   900      26.996 -20.247 -71.592  1.00  0.00    -0.385 OA
HETATM   12  C14 UNK   900      26.783 -19.040 -70.875  1.00  0.00     0.202 C 
ENDBRANCH   5  11
BRANCH   6  13
HETATM   13  O4  UNK   900      24.899 -21.958 -70.576  1.00  0.00    -0.390 OA
HETATM   14  H11 UNK   900      24.705 -21.739 -69.649  1.00  0.00     0.210 HD
ENDBRANCH   6  13
BRANCH   7  15
HETATM   15  O5  UNK   900      22.251 -20.837 -71.218  1.00  0.00    -0.388 OA
HETATM   16  H12 UNK   900      22.414 -21.439 -70.471  1.00  0.00     0.210 HD
ENDBRANCH   7  15
ENDBRANCH   1   2
BRANCH   1  17
HETATM   17  C9  UNK   900      22.343 -20.861 -75.127  1.00  0.00     0.077 C 
HETATM   18  C10 UNK   900      22.421 -22.201 -75.124  1.00  0.00     0.026 C 
HETATM   19  C6  UNK   900      22.796 -22.957 -76.367  1.00  0.00     0.121 C 
HETATM   20  C8  UNK   900      23.673 -22.122 -77.318  1.00  0.00     0.200 C 
HETATM   21  C13 UNK   900      23.475 -24.257 -75.994  1.00  0.00     0.162 C 
HETATM   22  O6  UNK   900      25.055 -22.085 -76.936  1.00  0.00    -0.343 OA
HETATM   23  C12 UNK   900      23.218 -20.680 -77.383  1.00  0.00     0.082 C 
HETATM   24  C16 UNK   900      25.617 -23.305 -76.640  1.00  0.00     0.047 C 
HETATM   25  C17 UNK   900      24.928 -24.375 -76.221  1.00  0.00     0.082 C 
HETATM   26  C18 UNK   900      27.104 -23.332 -76.803  1.00  0.00     0.076 C 
HETATM   27  C11 UNK   900      22.572 -20.085 -76.352  1.00  0.00     0.003 C 
HETATM   28  C15 UNK   900      22.034 -18.680 -76.398  1.00  0.00     0.054 C 
HETATM   29  O9  UNK   900      22.860 -25.195 -75.487  1.00  0.00    -0.292 OA
BRANCH  23  30
HETATM   30  O8  UNK   900      23.528 -20.065 -78.578  1.00  0.00    -0.362 OA
HETATM   31  H21 UNK   900      24.058 -19.272 -78.391  1.00  0.00     0.217 HD
ENDBRANCH  23  30
ENDBRANCH   1  17
TORSDOF 8
ENDMDL
MODEL 2
REMARK VINA RESULT:      -6.6     53.519     56.201
REMARK  8 active torsions:
REMARK  status: ('A' for Active; 'I' for Inactive)
REMARK    1  A    between atoms: O2_2  and  C5_14 
REMARK    2  A    between atoms: O2_2  and  C9_18 
REMARK    3  A    between atoms: O3_3  and  C1_10 
REMARK    4  A    between atoms: O4_4  and  C2_11 
REMARK    5  A    between atoms: O5_5  and  C3_12 
REMARK    6  A    between atoms: O7_7  and  C7_16 
REMARK    7  A    between atoms: O8_8  and  C12_21 
REMARK    8  A    between atoms: C4_13  and  C7_16 
ROOT
HETATM    1  O2  UNK   900       6.667 -67.852 -52.501  1.00  0.00    -0.317 OA
ENDROOT
BRANCH   1   2
HETATM    2  C5  UNK   900       5.424 -68.312 -51.973  1.00  0.00     0.298 C 
HETATM    3  O1  UNK   900       4.816 -69.218 -52.891  1.00  0.00    -0.348 OA
HETATM    4  C4  UNK   900       3.576 -69.737 -52.410  1.00  0.00     0.179 C 
HETATM    5  C1  UNK   900       2.565 -68.601 -52.243  1.00  0.00     0.183 C 
HETATM    6  C2  UNK   900       3.119 -67.512 -51.325  1.00  0.00     0.183 C 
HETATM    7  C3  UNK   900       4.527 -67.094 -51.749  1.00  0.00     0.205 C 
BRANCH   4   8
HETATM    8  C7  UNK   900       3.093 -70.780 -53.414  1.00  0.00     0.198 C 
BRANCH   8   9
HETATM    9  O7  UNK   900       2.486 -70.110 -54.503  1.00  0.00    -0.398 OA
HETATM   10  H20 UNK   900       2.996 -69.298 -54.662  1.00  0.00     0.209 HD
ENDBRANCH   8   9
ENDBRANCH   4   8
BRANCH   5  11
HETATM   11  O3  UNK   900       1.360 -69.120 -51.684  1.00  0.00    -0.385 OA
HETATM   12  C14 UNK   900       1.555 -69.552 -50.345  1.00  0.00     0.202 C 
ENDBRANCH   5  11
BRANCH   6  13
HETATM   13  O4  UNK   900       2.246 -66.383 -51.401  1.00  0.00    -0.390 OA
HETATM   14  H11 UNK   900       1.361 -66.664 -51.112  1.00  0.00     0.210 HD
ENDBRANCH   6  13
BRANCH   7  15
HETATM   15  O5  UNK   900       5.112 -66.291 -50.725  1.00  0.00    -0.388 OA
HETATM   16  H12 UNK   900       5.641 -66.872 -50.152  1.00  0.00     0.210 HD
ENDBRANCH   7  15
ENDBRANCH   1   2
BRANCH   1  17
HETATM   17  C9  UNK   900       7.677 -67.995 -51.569  1.00  0.00     0.077 C 
HETATM   18  C10 UNK   900       7.951 -69.208 -51.066  1.00  0.00     0.026 C 
HETATM   19  C6  UNK   900       9.028 -69.393 -50.035  1.00  0.00     0.121 C 
HETATM   20  C8  UNK   900       9.255 -68.125 -49.192  1.00  0.00     0.200 C 
HETATM   21  C13 UNK   900       8.703 -70.584 -49.159  1.00  0.00     0.162 C 
HETATM   22  O6  UNK   900       8.293 -67.957 -48.142  1.00  0.00    -0.343 OA
HETATM   23  C12 UNK   900       9.181 -66.869 -50.033  1.00  0.00     0.082 C 
HETATM   24  C16 UNK   900       8.068 -69.070 -47.365  1.00  0.00     0.047 C 
HETATM   25  C17 UNK   900       8.269 -70.331 -47.771  1.00  0.00     0.082 C 
HETATM   26  C18 UNK   900       7.543 -68.749 -46.001  1.00  0.00     0.076 C 
HETATM   27  C11 UNK   900       8.447 -66.810 -51.169  1.00  0.00     0.003 C 
HETATM   28  C15 UNK   900       8.402 -65.611 -52.077  1.00  0.00     0.054 C 
HETATM   29  O9  UNK   900       8.763 -71.739 -49.576  1.00  0.00    -0.292 OA
BRANCH  23  30
HETATM   30  O8  UNK   900       9.926 -65.827 -49.522  1.00  0.00    -0.362 OA
HETATM   31  H21 UNK   900       9.331 -65.081 -49.338  1.00  0.00     0.217 HD
ENDBRANCH  23  30
ENDBRANCH   1  17
TORSDOF 8
ENDMDL
MODEL 3
REMARK VINA RESULT:      -6.5     53.521     56.121
REMARK  8 active torsions:
REMARK  status: ('A' for Active; 'I' for Inactive)
REMARK    1  A    between atoms: O2_2  and  C5_14 
REMARK    2  A    between atoms: O2_2  and  C9_18 
REMARK    3  A    between atoms: O3_3  and  C1_10 
REMARK    4  A    between atoms: O4_4  and  C2_11 
REMARK    5  A    between atoms: O5_5  and  C3_12 
REMARK    6  A    between atoms: O7_7  and  C7_16 
REMARK    7  A    between atoms: O8_8  and  C12_21 
REMARK    8  A    between atoms: C4_13  and  C7_16 
ROOT
HETATM    1  O2  UNK   900       6.667 -68.074 -52.400  1.00  0.00    -0.317 OA
ENDROOT
BRANCH   1   2
HETATM    2  C5  UNK   900       5.440 -67.717 -51.764  1.00  0.00     0.298 C 
HETATM    3  O1  UNK   900       5.683 -67.398 -50.396  1.00  0.00    -0.348 OA
HETATM    4  C4  UNK   900       4.496 -67.006 -49.705  1.00  0.00     0.179 C 
HETATM    5  C1  UNK   900       3.502 -68.170 -49.673  1.00  0.00     0.183 C 
HETATM    6  C2  UNK   900       3.200 -68.664 -51.087  1.00  0.00     0.183 C 
HETATM    7  C3  UNK   900       4.487 -68.906 -51.876  1.00  0.00     0.205 C 
BRANCH   4   8
HETATM    8  C7  UNK   900       4.903 -66.572 -48.300  1.00  0.00     0.198 C 
BRANCH   8   9
HETATM    9  O7  UNK   900       6.158 -65.923 -48.375  1.00  0.00    -0.398 OA
HETATM   10  H20 UNK   900       5.996 -65.018 -48.693  1.00  0.00     0.209 HD
ENDBRANCH   8   9
ENDBRANCH   4   8
BRANCH   5  11
HETATM   11  O3  UNK   900       2.292 -67.739 -49.055  1.00  0.00    -0.385 OA
HETATM   12  C14 UNK   900       1.636 -66.751 -49.835  1.00  0.00     0.202 C 
ENDBRANCH   5  11
BRANCH   6  13
HETATM   13  O4  UNK   900       2.470 -69.888 -50.981  1.00  0.00    -0.390 OA
HETATM   14  H11 UNK   900       2.926 -70.560 -51.515  1.00  0.00     0.210 HD
ENDBRANCH   6  13
BRANCH   7  15
HETATM   15  O5  UNK   900       4.170 -69.097 -53.254  1.00  0.00    -0.388 OA
HETATM   16  H12 UNK   900       4.404 -70.011 -53.493  1.00  0.00     0.210 HD
ENDBRANCH   7  15
ENDBRANCH   1   2
BRANCH   1  17
HETATM   17  C9  UNK   900       7.692 -68.147 -51.477  1.00  0.00     0.077 C 
HETATM   18  C10 UNK   900       8.007 -69.328 -50.924  1.00  0.00     0.026 C 
HETATM   19  C6  UNK   900       9.102 -69.437 -49.902  1.00  0.00     0.121 C 
HETATM   20  C8  UNK   900       9.307 -68.126 -49.121  1.00  0.00     0.200 C 
HETATM   21  C13 UNK   900       8.822 -70.594 -48.968  1.00  0.00     0.162 C 
HETATM   22  O6  UNK   900       8.355 -67.935 -48.065  1.00  0.00    -0.343 OA
HETATM   23  C12 UNK   900       9.187 -66.913 -50.017  1.00  0.00     0.082 C 
HETATM   24  C16 UNK   900       8.171 -69.017 -47.235  1.00  0.00     0.047 C 
HETATM   25  C17 UNK   900       8.401 -70.290 -47.586  1.00  0.00     0.082 C 
HETATM   26  C18 UNK   900       7.656 -68.649 -45.880  1.00  0.00     0.076 C 
HETATM   27  C11 UNK   900       8.435 -66.925 -51.144  1.00  0.00     0.003 C 
HETATM   28  C15 UNK   900       8.346 -65.770 -52.105  1.00  0.00     0.054 C 
HETATM   29  O9  UNK   900       8.908 -71.766 -49.333  1.00  0.00    -0.292 OA
BRANCH  23  30
HETATM   30  O8  UNK   900       9.910 -65.828 -49.565  1.00  0.00    -0.362 OA
HETATM   31  H21 UNK   900      10.126 -65.967 -48.628  1.00  0.00     0.217 HD
ENDBRANCH  23  30
ENDBRANCH   1  17
TORSDOF 8
ENDMDL
MODEL 4
REMARK VINA RESULT:      -6.4     53.753     56.252
REMARK  8 active torsions:
REMARK  status: ('A' for Active; 'I' for Inactive)
REMARK    1  A    between atoms: O2_2  and  C5_14 
REMARK    2  A    between atoms: O2_2  and  C9_18 
REMARK    3  A    between atoms: O3_3  and  C1_10 
REMARK    4  A    between atoms: O4_4  and  C2_11 
REMARK    5  A    between atoms: O5_5  and  C3_12 
REMARK    6  A    between atoms: O7_7  and  C7_16 
REMARK    7  A    between atoms: O8_8  and  C12_21 
REMARK    8  A    between atoms: C4_13  and  C7_16 
ROOT
HETATM    1  O2  UNK   900       7.847 -66.881 -47.767  1.00  0.00    -0.317 OA
ENDROOT
BRANCH   1   2
HETATM    2  C5  UNK   900       8.072 -68.279 -47.593  1.00  0.00     0.298 C 
HETATM    3  O1  UNK   900       7.668 -68.981 -48.767  1.00  0.00    -0.348 OA
HETATM    4  C4  UNK   900       7.891 -70.388 -48.669  1.00  0.00     0.179 C 
HETATM    5  C1  UNK   900       7.038 -70.974 -47.541  1.00  0.00     0.183 C 
HETATM    6  C2  UNK   900       7.321 -70.260 -46.220  1.00  0.00     0.183 C 
HETATM    7  C3  UNK   900       7.257 -68.742 -46.386  1.00  0.00     0.205 C 
BRANCH   4   8
HETATM    8  C7  UNK   900       7.542 -71.005 -50.020  1.00  0.00     0.198 C 
BRANCH   8   9
HETATM    9  O7  UNK   900       8.249 -70.309 -51.029  1.00  0.00    -0.398 OA
HETATM   10  H20 UNK   900       8.057 -69.363 -50.915  1.00  0.00     0.209 HD
ENDBRANCH   8   9
ENDBRANCH   4   8
BRANCH   5  11
HETATM   11  O3  UNK   900       7.333 -72.362 -47.400  1.00  0.00    -0.385 OA
HETATM   12  C14 UNK   900       8.669 -72.566 -46.966  1.00  0.00     0.202 C 
ENDBRANCH   5  11
BRANCH   6  13
HETATM   13  O4  UNK   900       6.336 -70.677 -45.272  1.00  0.00    -0.390 OA
HETATM   14  H11 UNK   900       6.225 -69.967 -44.618  1.00  0.00     0.210 HD
ENDBRANCH   6  13
BRANCH   7  15
HETATM   15  O5  UNK   900       7.789 -68.114 -45.220  1.00  0.00    -0.388 OA
HETATM   16  H12 UNK   900       8.551 -68.638 -44.917  1.00  0.00     0.210 HD
ENDBRANCH   7  15
ENDBRANCH   1   2
BRANCH   1  17
HETATM   17  C9  UNK   900       7.593 -66.588 -49.093  1.00  0.00     0.077 C 
HETATM   18  C10 UNK   900       6.331 -66.379 -49.498  1.00  0.00     0.026 C 
HETATM   19  C6  UNK   900       6.020 -66.079 -50.937  1.00  0.00     0.121 C 
HETATM   20  C8  UNK   900       7.064 -66.677 -51.899  1.00  0.00     0.200 C 
HETATM   21  C13 UNK   900       4.625 -66.560 -51.274  1.00  0.00     0.162 C 
HETATM   22  O6  UNK   900       6.868 -68.074 -52.157  1.00  0.00    -0.343 OA
HETATM   23  C12 UNK   900       8.470 -66.545 -51.355  1.00  0.00     0.082 C 
HETATM   24  C16 UNK   900       5.583 -68.437 -52.487  1.00  0.00     0.047 C 
HETATM   25  C17 UNK   900       4.487 -67.755 -52.130  1.00  0.00     0.082 C 
HETATM   26  C18 UNK   900       5.506 -69.706 -53.277  1.00  0.00     0.076 C 
HETATM   27  C11 UNK   900       8.722 -66.485 -50.026  1.00  0.00     0.003 C 
HETATM   28  C15 UNK   900      10.094 -66.278 -49.441  1.00  0.00     0.054 C 
HETATM   29  O9  UNK   900       3.618 -66.007 -50.835  1.00  0.00    -0.292 OA
BRANCH  23  30
HETATM   30  O8  UNK   900       9.433 -66.493 -52.342  1.00  0.00    -0.362 OA
HETATM   31  H21 UNK   900      10.274 -66.219 -51.941  1.00  0.00     0.217 HD
ENDBRANCH  23  30
ENDBRANCH   1  17
TORSDOF 8
ENDMDL
MODEL 5
REMARK VINA RESULT:      -6.2      1.980      5.746
REMARK  8 active torsions:
REMARK  status: ('A' for Active; 'I' for Inactive)
REMARK    1  A    between atoms: O2_2  and  C5_14 
REMARK    2  A    between atoms: O2_2  and  C9_18 
REMARK    3  A    between atoms: O3_3  and  C1_10 
REMARK    4  A    between atoms: O4_4  and  C2_11 
REMARK    5  A    between atoms: O5_5  and  C3_12 
REMARK    6  A    between atoms: O7_7  and  C7_16 
REMARK    7  A    between atoms: O8_8  and  C12_21 
REMARK    8  A    between atoms: C4_13  and  C7_16 
ROOT
HETATM    1  O2  UNK   900      22.861 -20.937 -72.893  1.00  0.00    -0.317 OA
ENDROOT
BRANCH   1   2
HETATM    2  C5  UNK   900      23.416 -22.133 -73.441  1.00  0.00     0.298 C 
HETATM    3  O1  UNK   900      24.838 -22.034 -73.469  1.00  0.00    -0.348 OA
HETATM    4  C4  UNK   900      25.459 -23.212 -73.984  1.00  0.00     0.179 C 
HETATM    5  C1  UNK   900      25.045 -23.426 -75.442  1.00  0.00     0.183 C 
HETATM    6  C2  UNK   900      23.523 -23.483 -75.571  1.00  0.00     0.183 C 
HETATM    7  C3  UNK   900      22.862 -22.305 -74.855  1.00  0.00     0.205 C 
BRANCH   4   8
HETATM    8  C7  UNK   900      26.969 -23.035 -73.845  1.00  0.00     0.198 C 
BRANCH   8   9
HETATM    9  O7  UNK   900      27.424 -22.209 -74.901  1.00  0.00    -0.398 OA
HETATM   10  H20 UNK   900      28.395 -22.186 -74.850  1.00  0.00     0.209 HD
ENDBRANCH   8   9
ENDBRANCH   4   8
BRANCH   5  11
HETATM   11  O3  UNK   900      25.604 -24.648 -75.916  1.00  0.00    -0.385 OA
HETATM   12  C14 UNK   900      26.488 -24.425 -77.005  1.00  0.00     0.202 C 
ENDBRANCH   5  11
BRANCH   6  13
HETATM   13  O4  UNK   900      23.196 -23.439 -76.961  1.00  0.00    -0.390 OA
HETATM   14  H11 UNK   900      22.827 -24.303 -77.213  1.00  0.00     0.210 HD
ENDBRANCH   6  13
BRANCH   7  15
HETATM   15  O5  UNK   900      21.457 -22.536 -74.760  1.00  0.00    -0.388 OA
HETATM   16  H12 UNK   900      21.116 -22.688 -75.659  1.00  0.00     0.210 HD
ENDBRANCH   7  15
ENDBRANCH   1   2
BRANCH   1  17
HETATM   17  C9  UNK   900      23.852 -20.142 -72.350  1.00  0.00     0.077 C 
HETATM   18  C10 UNK   900      24.517 -19.280 -73.135  1.00  0.00     0.026 C 
HETATM   19  C6  UNK   900      25.615 -18.418 -72.579  1.00  0.00     0.121 C 
HETATM   20  C8  UNK   900      26.301 -19.057 -71.358  1.00  0.00     0.200 C 
HETATM   21  C13 UNK   900      26.618 -18.097 -73.667  1.00  0.00     0.162 C 
HETATM   22  O6  UNK   900      27.273 -20.053 -71.705  1.00  0.00    -0.343 OA
HETATM   23  C12 UNK   900      25.305 -19.742 -70.449  1.00  0.00     0.082 C 
HETATM   24  C16 UNK   900      28.172 -19.684 -72.678  1.00  0.00     0.047 C 
HETATM   25  C17 UNK   900      27.940 -18.752 -73.612  1.00  0.00     0.082 C 
HETATM   26  C18 UNK   900      29.457 -20.449 -72.624  1.00  0.00     0.076 C 
HETATM   27  C11 UNK   900      24.136 -20.243 -70.914  1.00  0.00     0.003 C 
HETATM   28  C15 UNK   900      23.082 -20.865 -70.037  1.00  0.00     0.054 C 
HETATM   29  O9  UNK   900      26.354 -17.338 -74.598  1.00  0.00    -0.292 OA
BRANCH  23  30
HETATM   30  O8  UNK   900      25.715 -19.795 -69.133  1.00  0.00    -0.362 OA
HETATM   31  H21 UNK   900      25.161 -19.192 -68.610  1.00  0.00     0.217 HD
ENDBRANCH  23  30
ENDBRANCH   1  17
TORSDOF 8
ENDMDL
MODEL 6
REMARK VINA RESULT:      -6.1     30.955     34.610
REMARK  8 active torsions:
REMARK  status: ('A' for Active; 'I' for Inactive)
REMARK    1  A    between atoms: O2_2  and  C5_14 
REMARK    2  A    between atoms: O2_2  and  C9_18 
REMARK    3  A    between atoms: O3_3  and  C1_10 
REMARK    4  A    between atoms: O4_4  and  C2_11 
REMARK    5  A    between atoms: O5_5  and  C3_12 
REMARK    6  A    between atoms: O7_7  and  C7_16 
REMARK    7  A    between atoms: O8_8  and  C12_21 
REMARK    8  A    between atoms: C4_13  and  C7_16 
ROOT
HETATM    1  O2  UNK   900       9.913 -51.216 -74.293  1.00  0.00    -0.317 OA
ENDROOT
BRANCH   1   2
HETATM    2  C5  UNK   900       9.519 -52.518 -74.727  1.00  0.00     0.298 C 
HETATM    3  O1  UNK   900      10.133 -53.506 -73.903  1.00  0.00    -0.348 OA
HETATM    4  C4  UNK   900       9.759 -54.835 -74.269  1.00  0.00     0.179 C 
HETATM    5  C1  UNK   900      10.242 -55.141 -75.688  1.00  0.00     0.183 C 
HETATM    6  C2  UNK   900       9.707 -54.108 -76.679  1.00  0.00     0.183 C 
HETATM    7  C3  UNK   900       9.958 -52.684 -76.181  1.00  0.00     0.205 C 
BRANCH   4   8
HETATM    8  C7  UNK   900      10.373 -55.785 -73.245  1.00  0.00     0.198 C 
BRANCH   8   9
HETATM    9  O7  UNK   900      11.301 -55.061 -72.459  1.00  0.00    -0.398 OA
HETATM   10  H20 UNK   900      12.150 -55.533 -72.507  1.00  0.00     0.209 HD
ENDBRANCH   8   9
ENDBRANCH   4   8
BRANCH   5  11
HETATM   11  O3  UNK   900       9.789 -56.438 -76.070  1.00  0.00    -0.385 OA
HETATM   12  C14 UNK   900       8.371 -56.513 -76.067  1.00  0.00     0.202 C 
ENDBRANCH   5  11
BRANCH   6  13
HETATM   13  O4  UNK   900      10.380 -54.301 -77.925  1.00  0.00    -0.390 OA
HETATM   14  H11 UNK   900      10.820 -53.468 -78.163  1.00  0.00     0.210 HD
ENDBRANCH   6  13
BRANCH   7  15
HETATM   15  O5  UNK   900       9.214 -51.764 -76.981  1.00  0.00    -0.388 OA
HETATM   16  H12 UNK   900       8.797 -52.264 -77.704  1.00  0.00     0.210 HD
ENDBRANCH   7  15
ENDBRANCH   1   2
BRANCH   1  17
HETATM   17  C9  UNK   900       8.935 -50.649 -73.500  1.00  0.00     0.077 C 
HETATM   18  C10 UNK   900       7.688 -50.512 -73.977  1.00  0.00     0.026 C 
HETATM   19  C6  UNK   900       6.607 -49.880 -73.146  1.00  0.00     0.121 C 
HETATM   20  C8  UNK   900       7.168 -48.880 -72.118  1.00  0.00     0.200 C 
HETATM   21  C13 UNK   900       5.583 -49.224 -74.048  1.00  0.00     0.162 C 
HETATM   22  O6  UNK   900       7.475 -47.596 -72.679  1.00  0.00    -0.343 OA
HETATM   23  C12 UNK   900       8.450 -49.380 -71.489  1.00  0.00     0.082 C 
HETATM   24  C16 UNK   900       6.488 -47.044 -73.463  1.00  0.00     0.047 C 
HETATM   25  C17 UNK   900       5.550 -47.750 -74.109  1.00  0.00     0.082 C 
HETATM   26  C18 UNK   900       6.565 -45.553 -73.558  1.00  0.00     0.076 C 
HETATM   27  C11 UNK   900       9.281 -50.231 -72.135  1.00  0.00     0.003 C 
HETATM   28  C15 UNK   900      10.527 -50.814 -71.523  1.00  0.00     0.054 C 
HETATM   29  O9  UNK   900       4.807 -49.879 -74.742  1.00  0.00    -0.292 OA
BRANCH  23  30
HETATM   30  O8  UNK   900       8.664 -48.881 -70.221  1.00  0.00    -0.362 OA
HETATM   31  H21 UNK   900       8.482 -47.927 -70.227  1.00  0.00     0.217 HD
ENDBRANCH  23  30
ENDBRANCH   1  17
TORSDOF 8
ENDMDL
MODEL 7
REMARK VINA RESULT:      -6.0     54.028     56.490
REMARK  8 active torsions:
REMARK  status: ('A' for Active; 'I' for Inactive)
REMARK    1  A    between atoms: O2_2  and  C5_14 
REMARK    2  A    between atoms: O2_2  and  C9_18 
REMARK    3  A    between atoms: O3_3  and  C1_10 
REMARK    4  A    between atoms: O4_4  and  C2_11 
REMARK    5  A    between atoms: O5_5  and  C3_12 
REMARK    6  A    between atoms: O7_7  and  C7_16 
REMARK    7  A    between atoms: O8_8  and  C12_21 
REMARK    8  A    between atoms: C4_13  and  C7_16 
ROOT
HETATM    1  O2  UNK   900       7.897 -66.898 -47.715  1.00  0.00    -0.317 OA
ENDROOT
BRANCH   1   2
HETATM    2  C5  UNK   900       6.958 -67.845 -47.208  1.00  0.00     0.298 C 
HETATM    3  O1  UNK   900       6.399 -67.362 -45.989  1.00  0.00    -0.348 OA
HETATM    4  C4  UNK   900       5.428 -68.254 -45.439  1.00  0.00     0.179 C 
HETATM    5  C1  UNK   900       6.090 -69.585 -45.075  1.00  0.00     0.183 C 
HETATM    6  C2  UNK   900       6.795 -70.190 -46.288  1.00  0.00     0.183 C 
HETATM    7  C3  UNK   900       7.696 -69.163 -46.974  1.00  0.00     0.205 C 
BRANCH   4   8
HETATM    8  C7  UNK   900       4.817 -67.574 -44.217  1.00  0.00     0.198 C 
BRANCH   8   9
HETATM    9  O7  UNK   900       3.444 -67.913 -44.153  1.00  0.00    -0.398 OA
HETATM   10  H20 UNK   900       3.065 -67.747 -45.033  1.00  0.00     0.209 HD
ENDBRANCH   8   9
ENDBRANCH   4   8
BRANCH   5  11
HETATM   11  O3  UNK   900       5.095 -70.493 -44.607  1.00  0.00    -0.385 OA
HETATM   12  C14 UNK   900       4.259 -70.936 -45.665  1.00  0.00     0.202 C 
ENDBRANCH   5  11
BRANCH   6  13
HETATM   13  O4  UNK   900       7.588 -71.290 -45.835  1.00  0.00    -0.390 OA
HETATM   14  H11 UNK   900       7.494 -72.015 -46.476  1.00  0.00     0.210 HD
ENDBRANCH   6  13
BRANCH   7  15
HETATM   15  O5  UNK   900       8.116 -69.670 -48.240  1.00  0.00    -0.388 OA
HETATM   16  H12 UNK   900       7.912 -70.621 -48.265  1.00  0.00     0.210 HD
ENDBRANCH   7  15
ENDBRANCH   1   2
BRANCH   1  17
HETATM   17  C9  UNK   900       7.632 -66.608 -49.040  1.00  0.00     0.077 C 
HETATM   18  C10 UNK   900       6.366 -66.398 -49.434  1.00  0.00     0.026 C 
HETATM   19  C6  UNK   900       6.043 -66.102 -50.871  1.00  0.00     0.121 C 
HETATM   20  C8  UNK   900       7.077 -66.704 -51.840  1.00  0.00     0.200 C 
HETATM   21  C13 UNK   900       4.644 -66.583 -51.193  1.00  0.00     0.162 C 
HETATM   22  O6  UNK   900       6.877 -68.101 -52.093  1.00  0.00    -0.343 OA
HETATM   23  C12 UNK   900       8.488 -66.572 -51.310  1.00  0.00     0.082 C 
HETATM   24  C16 UNK   900       5.588 -68.464 -52.410  1.00  0.00     0.047 C 
HETATM   25  C17 UNK   900       4.496 -67.779 -52.044  1.00  0.00     0.082 C 
HETATM   26  C18 UNK   900       5.502 -69.735 -53.196  1.00  0.00     0.076 C 
HETATM   27  C11 UNK   900       8.752 -66.509 -49.983  1.00  0.00     0.003 C 
HETATM   28  C15 UNK   900      10.129 -66.303 -49.411  1.00  0.00     0.054 C 
HETATM   29  O9  UNK   900       3.642 -66.027 -50.747  1.00  0.00    -0.292 OA
BRANCH  23  30
HETATM   30  O8  UNK   900       9.441 -66.524 -52.305  1.00  0.00    -0.362 OA
HETATM   31  H21 UNK   900      10.179 -67.105 -52.057  1.00  0.00     0.217 HD
ENDBRANCH  23  30
ENDBRANCH   1  17
TORSDOF 8
ENDMDL
MODEL 8
REMARK VINA RESULT:      -6.0     54.755     57.279
REMARK  8 active torsions:
REMARK  status: ('A' for Active; 'I' for Inactive)
REMARK    1  A    between atoms: O2_2  and  C5_14 
REMARK    2  A    between atoms: O2_2  and  C9_18 
REMARK    3  A    between atoms: O3_3  and  C1_10 
REMARK    4  A    between atoms: O4_4  and  C2_11 
REMARK    5  A    between atoms: O5_5  and  C3_12 
REMARK    6  A    between atoms: O7_7  and  C7_16 
REMARK    7  A    between atoms: O8_8  and  C12_21 
REMARK    8  A    between atoms: C4_13  and  C7_16 
ROOT
HETATM    1  O2  UNK   900       8.215 -71.335 -50.176  1.00  0.00    -0.317 OA
ENDROOT
BRANCH   1   2
HETATM    2  C5  UNK   900       9.065 -71.024 -49.073  1.00  0.00     0.298 C 
HETATM    3  O1  UNK   900      10.429 -71.081 -49.484  1.00  0.00    -0.348 OA
HETATM    4  C4  UNK   900      11.335 -70.753 -48.430  1.00  0.00     0.179 C 
HETATM    5  C1  UNK   900      11.215 -71.780 -47.302  1.00  0.00     0.183 C 
HETATM    6  C2  UNK   900       9.773 -71.873 -46.803  1.00  0.00     0.183 C 
HETATM    7  C3  UNK   900       8.796 -72.043 -47.966  1.00  0.00     0.205 C 
BRANCH   4   8
HETATM    8  C7  UNK   900      12.741 -70.726 -49.023  1.00  0.00     0.198 C 
BRANCH   8   9
HETATM    9  O7  UNK   900      13.227 -72.054 -49.089  1.00  0.00    -0.398 OA
HETATM   10  H20 UNK   900      12.844 -72.461 -49.884  1.00  0.00     0.209 HD
ENDBRANCH   8   9
ENDBRANCH   4   8
BRANCH   5  11
HETATM   11  O3  UNK   900      12.062 -71.394 -46.222  1.00  0.00    -0.385 OA
HETATM   12  C14 UNK   900      12.832 -72.490 -45.750  1.00  0.00     0.202 C 
ENDBRANCH   5  11
BRANCH   6  13
HETATM   13  O4  UNK   900       9.679 -73.003 -45.934  1.00  0.00    -0.390 OA
HETATM   14  H11 UNK   900      10.446 -73.577 -46.098  1.00  0.00     0.210 HD
ENDBRANCH   6  13
BRANCH   7  15
HETATM   15  O5  UNK   900       7.462 -71.852 -47.497  1.00  0.00    -0.388 OA
HETATM   16  H12 UNK   900       7.450 -72.032 -46.541  1.00  0.00     0.210 HD
ENDBRANCH   7  15
ENDBRANCH   1   2
BRANCH   1  17
HETATM   17  C9  UNK   900       7.606 -70.194 -50.660  1.00  0.00     0.077 C 
HETATM   18  C10 UNK   900       8.042 -68.988 -50.265  1.00  0.00     0.026 C 
HETATM   19  C6  UNK   900       7.387 -67.729 -50.757  1.00  0.00     0.121 C 
HETATM   20  C8  UNK   900       5.908 -67.945 -51.130  1.00  0.00     0.200 C 
HETATM   21  C13 UNK   900       7.538 -66.632 -49.725  1.00  0.00     0.162 C 
HETATM   22  O6  UNK   900       5.029 -67.948 -49.997  1.00  0.00    -0.343 OA
HETATM   23  C12 UNK   900       5.693 -69.268 -51.831  1.00  0.00     0.082 C 
HETATM   24  C16 UNK   900       5.201 -66.906 -49.115  1.00  0.00     0.047 C 
HETATM   25  C17 UNK   900       6.344 -66.226 -48.959  1.00  0.00     0.082 C 
HETATM   26  C18 UNK   900       3.980 -66.604 -48.304  1.00  0.00     0.076 C 
HETATM   27  C11 UNK   900       6.506 -70.331 -51.623  1.00  0.00     0.003 C 
HETATM   28  C15 UNK   900       6.377 -71.641 -52.353  1.00  0.00     0.054 C 
HETATM   29  O9  UNK   900       8.622 -66.098 -49.491  1.00  0.00    -0.292 OA
BRANCH  23  30
HETATM   30  O8  UNK   900       4.605 -69.263 -52.680  1.00  0.00    -0.362 OA
HETATM   31  H21 UNK   900       4.342 -70.182 -52.853  1.00  0.00     0.217 HD
ENDBRANCH  23  30
ENDBRANCH   1  17
TORSDOF 8
ENDMDL
MODEL 9
REMARK VINA RESULT:      -5.9     51.396     53.891
REMARK  8 active torsions:
REMARK  status: ('A' for Active; 'I' for Inactive)
REMARK    1  A    between atoms: O2_2  and  C5_14 
REMARK    2  A    between atoms: O2_2  and  C9_18 
REMARK    3  A    between atoms: O3_3  and  C1_10 
REMARK    4  A    between atoms: O4_4  and  C2_11 
REMARK    5  A    between atoms: O5_5  and  C3_12 
REMARK    6  A    between atoms: O7_7  and  C7_16 
REMARK    7  A    between atoms: O8_8  and  C12_21 
REMARK    8  A    between atoms: C4_13  and  C7_16 
ROOT
HETATM    1  O2  UNK   900      24.613 -60.650 -38.330  1.00  0.00    -0.317 OA
ENDROOT
BRANCH   1   2
HETATM    2  C5  UNK   900      23.367 -60.403 -37.681  1.00  0.00     0.298 C 
HETATM    3  O1  UNK   900      23.218 -61.285 -36.572  1.00  0.00    -0.348 OA
HETATM    4  C4  UNK   900      21.999 -61.072 -35.860  1.00  0.00     0.179 C 
HETATM    5  C1  UNK   900      20.805 -61.370 -36.769  1.00  0.00     0.183 C 
HETATM    6  C2  UNK   900      20.872 -60.532 -38.045  1.00  0.00     0.183 C 
HETATM    7  C3  UNK   900      22.250 -60.630 -38.700  1.00  0.00     0.205 C 
BRANCH   4   8
HETATM    8  C7  UNK   900      22.016 -61.980 -34.634  1.00  0.00     0.198 C 
BRANCH   8   9
HETATM    9  O7  UNK   900      21.311 -63.168 -34.944  1.00  0.00    -0.398 OA
HETATM   10  H20 UNK   900      21.053 -63.114 -35.880  1.00  0.00     0.209 HD
ENDBRANCH   8   9
ENDBRANCH   4   8
BRANCH   5  11
HETATM   11  O3  UNK   900      19.596 -61.072 -36.074  1.00  0.00    -0.385 OA
HETATM   12  C14 UNK   900      19.470 -59.680 -35.827  1.00  0.00     0.202 C 
ENDBRANCH   5  11
BRANCH   6  13
HETATM   13  O4  UNK   900      19.881 -61.023 -38.950  1.00  0.00    -0.390 OA
HETATM   14  H11 UNK   900      19.191 -60.344 -39.041  1.00  0.00     0.210 HD
ENDBRANCH   6  13
BRANCH   7  15
HETATM   15  O5  UNK   900      22.364 -59.635 -39.717  1.00  0.00    -0.388 OA
HETATM   16  H12 UNK   900      21.825 -59.918 -40.476  1.00  0.00     0.210 HD
ENDBRANCH   7  15
ENDBRANCH   1   2
BRANCH   1  17
HETATM   17  C9  UNK   900      25.643 -60.003 -37.674  1.00  0.00     0.077 C 
HETATM   18  C10 UNK   900      25.549 -58.688 -37.423  1.00  0.00     0.026 C 
HETATM   19  C6  UNK   900      26.660 -57.952 -36.731  1.00  0.00     0.121 C 
HETATM   20  C8  UNK   900      28.033 -58.610 -36.962  1.00  0.00     0.200 C 
HETATM   21  C13 UNK   900      26.667 -56.502 -37.166  1.00  0.00     0.162 C 
HETATM   22  O6  UNK   900      28.617 -58.281 -38.230  1.00  0.00    -0.343 OA
HETATM   23  C12 UNK   900      27.946 -60.120 -36.921  1.00  0.00     0.082 C 
HETATM   24  C16 UNK   900      28.618 -56.943 -38.549  1.00  0.00     0.047 C 
HETATM   25  C17 UNK   900      27.748 -56.047 -38.061  1.00  0.00     0.082 C 
HETATM   26  C18 UNK   900      29.681 -56.563 -39.531  1.00  0.00     0.076 C 
HETATM   27  C11 UNK   900      26.809 -60.783 -37.242  1.00  0.00     0.003 C 
HETATM   28  C15 UNK   900      26.653 -62.276 -37.143  1.00  0.00     0.054 C 
HETATM   29  O9  UNK   900      25.790 -55.711 -36.820  1.00  0.00    -0.292 OA
BRANCH  23  30
HETATM   30  O8  UNK   900      29.124 -60.723 -36.530  1.00  0.00    -0.362 OA
HETATM   31  H21 UNK   900      29.161 -60.731 -35.559  1.00  0.00     0.217 HD
ENDBRANCH  23  30
ENDBRANCH   1  17
TORSDOF 8
ENDMDL
