MODEL 1
REMARK VINA RESULT:      -7.0      0.000      0.000
REMARK  1 active torsions:
REMARK  status: ('A' for Active; 'I' for Inactive)
REMARK    1  A    between atoms: O3_3  and  C14_18 
ROOT
HETATM    1  O1  UNK   900      31.051 -49.509 -58.798  1.00  0.00    -0.281 OA
HETATM    2  O2  UNK   900      29.793 -49.515 -62.808  1.00  0.00    -0.292 OA
HETATM    3  O4  UNK   900      32.101 -47.696 -57.871  1.00  0.00    -0.259 OA
HETATM    4  C1  UNK   900      32.544 -44.271 -63.410  1.00  0.00    -0.043 C 
HETATM    5  C2  UNK   900      31.387 -46.384 -62.984  1.00  0.00     0.026 C 
HETATM    6  C3  UNK   900      31.422 -45.179 -63.942  1.00  0.00     0.019 C 
HETATM    7  C4  UNK   900      32.320 -44.351 -61.892  1.00  0.00     0.043 C 
HETATM    8  C5  UNK   900      31.799 -45.751 -61.673  1.00  0.00    -0.073 C 
HETATM    9  C6  UNK   900      30.030 -47.109 -62.926  1.00  0.00     0.064 C 
HETATM   10  C7  UNK   900      33.935 -44.800 -63.801  1.00  0.00     0.015 C 
HETATM   11  C8  UNK   900      32.393 -42.837 -63.926  1.00  0.00     0.015 C 
HETATM   12  C9  UNK   900      31.730 -46.303 -60.453  1.00  0.00     0.021 C 
HETATM   13  C10 UNK   900      30.160 -48.479 -62.248  1.00  0.00     0.166 C 
HETATM   14  C11 UNK   900      29.415 -47.301 -64.321  1.00  0.00     0.019 C 
HETATM   15  C12 UNK   900      30.680 -48.570 -60.857  1.00  0.00     0.059 A 
HETATM   16  C13 UNK   900      31.311 -47.638 -60.143  1.00  0.00     0.054 A 
HETATM   17  C14 UNK   900      30.511 -49.825 -60.080  1.00  0.00     0.306 A 
HETATM   18  C15 UNK   900      31.549 -48.240 -58.814  1.00  0.00     0.296 A 
ENDROOT
BRANCH  17  19
HETATM   19  O3  UNK   900      31.228 -50.886 -60.693  1.00  0.00    -0.366 OA
HETATM   20  H18 UNK   900      31.192 -51.670 -60.119  1.00  0.00     0.213 HD
ENDBRANCH  17  19
TORSDOF 1
ENDMDL
MODEL 2
REMARK VINA RESULT:      -6.5     10.876     12.298
REMARK  1 active torsions:
REMARK  status: ('A' for Active; 'I' for Inactive)
REMARK    1  A    between atoms: O3_3  and  C14_18 
ROOT
HETATM    1  O1  UNK   900      36.514 -35.753 -59.479  1.00  0.00    -0.281 OA
HETATM    2  O2  UNK   900      33.787 -36.308 -56.330  1.00  0.00    -0.292 OA
HETATM    3  O4  UNK   900      38.095 -37.329 -59.990  1.00  0.00    -0.259 OA
HETATM    4  C1  UNK   900      36.805 -41.242 -54.927  1.00  0.00    -0.043 C 
HETATM    5  C2  UNK   900      35.618 -39.240 -55.679  1.00  0.00     0.026 C 
HETATM    6  C3  UNK   900      35.446 -40.527 -54.851  1.00  0.00     0.019 C 
HETATM    7  C4  UNK   900      37.191 -41.030 -56.399  1.00  0.00     0.043 C 
HETATM    8  C5  UNK   900      36.601 -39.683 -56.741  1.00  0.00    -0.073 C 
HETATM    9  C6  UNK   900      34.304 -38.671 -56.246  1.00  0.00     0.064 C 
HETATM   10  C7  UNK   900      37.836 -40.603 -53.979  1.00  0.00     0.015 C 
HETATM   11  C8  UNK   900      36.673 -42.730 -54.590  1.00  0.00     0.015 C 
HETATM   12  C9  UNK   900      36.941 -39.018 -57.854  1.00  0.00     0.021 C 
HETATM   13  C10 UNK   900      34.491 -37.232 -56.744  1.00  0.00     0.166 C 
HETATM   14  C11 UNK   900      33.168 -38.696 -55.213  1.00  0.00     0.019 C 
HETATM   15  C12 UNK   900      35.499 -36.938 -57.798  1.00  0.00     0.059 A 
HETATM   16  C13 UNK   900      36.489 -37.713 -58.241  1.00  0.00     0.054 A 
HETATM   17  C14 UNK   900      35.471 -35.636 -58.512  1.00  0.00     0.306 A 
HETATM   18  C15 UNK   900      37.142 -36.952 -59.326  1.00  0.00     0.296 A 
ENDROOT
BRANCH  17  19
HETATM   19  O3  UNK   900      35.725 -34.570 -57.609  1.00  0.00    -0.366 OA
HETATM   20  H18 UNK   900      36.208 -33.866 -58.073  1.00  0.00     0.213 HD
ENDBRANCH  17  19
TORSDOF 1
ENDMDL
MODEL 3
REMARK VINA RESULT:      -6.5     27.039     28.583
REMARK  1 active torsions:
REMARK  status: ('A' for Active; 'I' for Inactive)
REMARK    1  A    between atoms: O3_3  and  C14_18 
ROOT
HETATM    1  O1  UNK   900       1.931 -48.609 -58.132  1.00  0.00    -0.281 OA
HETATM    2  O2  UNK   900       0.293 -44.842 -59.024  1.00  0.00    -0.292 OA
HETATM    3  O4  UNK   900       3.930 -49.289 -59.019  1.00  0.00    -0.259 OA
HETATM    4  C1  UNK   900       4.713 -44.134 -62.945  1.00  0.00    -0.043 C 
HETATM    5  C2  UNK   900       3.010 -44.533 -61.236  1.00  0.00     0.026 C 
HETATM    6  C3  UNK   900       3.703 -43.415 -62.035  1.00  0.00     0.019 C 
HETATM    7  C4  UNK   900       5.282 -45.204 -62.002  1.00  0.00     0.043 C 
HETATM    8  C5  UNK   900       4.120 -45.555 -61.104  1.00  0.00    -0.073 C 
HETATM    9  C6  UNK   900       2.420 -44.078 -59.888  1.00  0.00     0.064 C 
HETATM   10  C7  UNK   900       4.024 -44.770 -64.166  1.00  0.00     0.015 C 
HETATM   11  C8  UNK   900       5.805 -43.177 -63.433  1.00  0.00     0.015 C 
HETATM   12  C9  UNK   900       4.130 -46.638 -60.315  1.00  0.00     0.021 C 
HETATM   13  C10 UNK   900       1.455 -45.127 -59.321  1.00  0.00     0.166 C 
HETATM   14  C11 UNK   900       1.683 -42.735 -60.002  1.00  0.00     0.019 C 
HETATM   15  C12 UNK   900       1.936 -46.510 -59.058  1.00  0.00     0.059 A 
HETATM   16  C13 UNK   900       3.061 -47.093 -59.475  1.00  0.00     0.054 A 
HETATM   17  C14 UNK   900       1.127 -47.433 -58.222  1.00  0.00     0.306 A 
HETATM   18  C15 UNK   900       3.060 -48.444 -58.877  1.00  0.00     0.296 A 
ENDROOT
BRANCH  17  19
HETATM   19  O3  UNK   900      -0.116 -47.708 -58.850  1.00  0.00    -0.366 OA
HETATM   20  H18 UNK   900      -0.794 -47.851 -58.169  1.00  0.00     0.213 HD
ENDBRANCH  17  19
TORSDOF 1
ENDMDL
MODEL 4
REMARK VINA RESULT:      -6.4     30.418     31.883
REMARK  1 active torsions:
REMARK  status: ('A' for Active; 'I' for Inactive)
REMARK    1  A    between atoms: O3_3  and  C14_18 
ROOT
HETATM    1  O1  UNK   900       6.186 -63.725 -60.594  1.00  0.00    -0.281 OA
HETATM    2  O2  UNK   900       3.940 -63.727 -64.147  1.00  0.00    -0.292 OA
HETATM    3  O4  UNK   900       5.620 -62.395 -58.817  1.00  0.00    -0.259 OA
HETATM    4  C1  UNK   900       0.799 -59.217 -61.862  1.00  0.00    -0.043 C 
HETATM    5  C2  UNK   900       2.120 -61.128 -62.628  1.00  0.00     0.026 C 
HETATM    6  C3  UNK   900       0.785 -60.394 -62.851  1.00  0.00     0.019 C 
HETATM    7  C4  UNK   900       1.398 -59.869 -60.605  1.00  0.00     0.043 C 
HETATM    8  C5  UNK   900       2.357 -60.899 -61.150  1.00  0.00    -0.073 C 
HETATM    9  C6  UNK   900       2.103 -62.614 -63.032  1.00  0.00     0.064 C 
HETATM   10  C7  UNK   900       1.680 -58.061 -62.369  1.00  0.00     0.015 C 
HETATM   11  C8  UNK   900      -0.614 -58.689 -61.602  1.00  0.00     0.015 C 
HETATM   12  C9  UNK   900       3.272 -61.500 -60.377  1.00  0.00     0.021 C 
HETATM   13  C10 UNK   900       3.524 -63.183 -63.121  1.00  0.00     0.166 C 
HETATM   14  C11 UNK   900       1.392 -62.841 -64.375  1.00  0.00     0.019 C 
HETATM   15  C12 UNK   900       4.415 -63.141 -61.930  1.00  0.00     0.059 A 
HETATM   16  C13 UNK   900       4.265 -62.443 -60.804  1.00  0.00     0.054 A 
HETATM   17  C14 UNK   900       5.652 -63.962 -61.896  1.00  0.00     0.306 A 
HETATM   18  C15 UNK   900       5.404 -62.820 -59.941  1.00  0.00     0.296 A 
ENDROOT
BRANCH  17  19
HETATM   19  O3  UNK   900       6.555 -63.536 -62.906  1.00  0.00    -0.366 OA
HETATM   20  H18 UNK   900       6.138 -62.833 -63.432  1.00  0.00     0.213 HD
ENDBRANCH  17  19
TORSDOF 1
ENDMDL
MODEL 5
REMARK VINA RESULT:      -6.3     21.276     22.563
REMARK  1 active torsions:
REMARK  status: ('A' for Active; 'I' for Inactive)
REMARK    1  A    between atoms: O3_3  and  C14_18 
ROOT
HETATM    1  O1  UNK   900      18.882 -31.740 -46.650  1.00  0.00    -0.281 OA
HETATM    2  O2  UNK   900      22.156 -34.270 -47.387  1.00  0.00    -0.292 OA
HETATM    3  O4  UNK   900      18.717 -29.674 -47.626  1.00  0.00    -0.259 OA
HETATM    4  C1  UNK   900      24.612 -29.782 -50.428  1.00  0.00    -0.043 C 
HETATM    5  C2  UNK   900      23.437 -31.558 -49.224  1.00  0.00     0.026 C 
HETATM    6  C3  UNK   900      24.556 -31.308 -50.252  1.00  0.00     0.019 C 
HETATM    7  C4  UNK   900      23.121 -29.411 -50.445  1.00  0.00     0.043 C 
HETATM    8  C5  UNK   900      22.483 -30.420 -49.521  1.00  0.00    -0.073 C 
HETATM    9  C6  UNK   900      22.791 -32.952 -49.315  1.00  0.00     0.064 C 
HETATM   10  C7  UNK   900      25.346 -29.103 -49.257  1.00  0.00     0.015 C 
HETATM   11  C8  UNK   900      25.302 -29.396 -51.739  1.00  0.00     0.015 C 
HETATM   12  C9  UNK   900      21.233 -30.275 -49.061  1.00  0.00     0.021 C 
HETATM   13  C10 UNK   900      21.955 -33.261 -48.066  1.00  0.00     0.166 C 
HETATM   14  C11 UNK   900      23.834 -34.064 -49.502  1.00  0.00     0.019 C 
HETATM   15  C12 UNK   900      20.831 -32.363 -47.687  1.00  0.00     0.059 A 
HETATM   16  C13 UNK   900      20.557 -31.138 -48.136  1.00  0.00     0.054 A 
HETATM   17  C14 UNK   900      19.825 -32.811 -46.690  1.00  0.00     0.306 A 
HETATM   18  C15 UNK   900      19.300 -30.735 -47.471  1.00  0.00     0.296 A 
ENDROOT
BRANCH  17  19
HETATM   19  O3  UNK   900      20.436 -33.005 -45.424  1.00  0.00    -0.366 OA
HETATM   20  H18 UNK   900      20.072 -32.364 -44.791  1.00  0.00     0.213 HD
ENDBRANCH  17  19
TORSDOF 1
ENDMDL
MODEL 6
REMARK VINA RESULT:      -6.3     31.799     34.068
REMARK  1 active torsions:
REMARK  status: ('A' for Active; 'I' for Inactive)
REMARK    1  A    between atoms: O3_3  and  C14_18 
ROOT
HETATM    1  O1  UNK   900      26.545 -44.284 -93.748  1.00  0.00    -0.281 OA
HETATM    2  O2  UNK   900      24.809 -42.351 -97.051  1.00  0.00    -0.292 OA
HETATM    3  O4  UNK   900      27.161 -43.129 -91.868  1.00  0.00    -0.259 OA
HETATM    4  C1  UNK   900      25.877 -37.198 -94.272  1.00  0.00    -0.043 C 
HETATM    5  C2  UNK   900      25.425 -39.395 -95.248  1.00  0.00     0.026 C 
HETATM    6  C3  UNK   900      24.993 -37.919 -95.303  1.00  0.00     0.019 C 
HETATM    7  C4  UNK   900      25.891 -38.204 -93.111  1.00  0.00     0.043 C 
HETATM    8  C5  UNK   900      25.817 -39.549 -93.793  1.00  0.00    -0.073 C 
HETATM    9  C6  UNK   900      24.346 -40.391 -95.710  1.00  0.00     0.064 C 
HETATM   10  C7  UNK   900      27.295 -36.948 -94.816  1.00  0.00     0.015 C 
HETATM   11  C8  UNK   900      25.263 -35.861 -93.848  1.00  0.00     0.015 C 
HETATM   12  C9  UNK   900      26.071 -40.693 -93.143  1.00  0.00     0.021 C 
HETATM   13  C10 UNK   900      24.944 -41.780 -95.967  1.00  0.00     0.166 C 
HETATM   14  C11 UNK   900      23.627 -39.916 -96.983  1.00  0.00     0.019 C 
HETATM   15  C12 UNK   900      25.652 -42.495 -94.871  1.00  0.00     0.059 A 
HETATM   16  C13 UNK   900      26.087 -42.011 -93.707  1.00  0.00     0.054 A 
HETATM   17  C14 UNK   900      25.947 -43.945 -94.998  1.00  0.00     0.306 A 
HETATM   18  C15 UNK   900      26.661 -43.163 -92.981  1.00  0.00     0.296 A 
ENDROOT
BRANCH  17  19
HETATM   19  O3  UNK   900      26.842 -44.175 -96.075  1.00  0.00    -0.366 OA
HETATM   20  H18 UNK   900      27.122 -45.106 -96.066  1.00  0.00     0.213 HD
ENDBRANCH  17  19
TORSDOF 1
ENDMDL
MODEL 7
REMARK VINA RESULT:      -6.2      4.180      5.774
REMARK  1 active torsions:
REMARK  status: ('A' for Active; 'I' for Inactive)
REMARK    1  A    between atoms: O3_3  and  C14_18 
ROOT
HETATM    1  O1  UNK   900      37.569 -50.404 -61.129  1.00  0.00    -0.281 OA
HETATM    2  O2  UNK   900      35.395 -47.629 -63.419  1.00  0.00    -0.292 OA
HETATM    3  O4  UNK   900      36.521 -51.931 -59.783  1.00  0.00    -0.259 OA
HETATM    4  C1  UNK   900      30.491 -49.598 -60.681  1.00  0.00    -0.043 C 
HETATM    5  C2  UNK   900      32.580 -48.957 -61.782  1.00  0.00     0.026 C 
HETATM    6  C3  UNK   900      31.049 -48.926 -61.947  1.00  0.00     0.019 C 
HETATM    7  C4  UNK   900      31.465 -50.771 -60.491  1.00  0.00     0.043 C 
HETATM    8  C5  UNK   900      32.782 -50.238 -61.002  1.00  0.00    -0.073 C 
HETATM    9  C6  UNK   900      33.362 -48.904 -63.107  1.00  0.00     0.064 C 
HETATM   10  C7  UNK   900      30.520 -48.643 -59.473  1.00  0.00     0.015 C 
HETATM   11  C8  UNK   900      29.057 -50.087 -60.895  1.00  0.00     0.015 C 
HETATM   12  C9  UNK   900      33.944 -50.865 -60.766  1.00  0.00     0.021 C 
HETATM   13  C10 UNK   900      34.843 -48.582 -62.866  1.00  0.00     0.166 C 
HETATM   14  C11 UNK   900      32.781 -47.870 -64.083  1.00  0.00     0.019 C 
HETATM   15  C12 UNK   900      35.661 -49.469 -61.996  1.00  0.00     0.059 A 
HETATM   16  C13 UNK   900      35.250 -50.415 -61.151  1.00  0.00     0.054 A 
HETATM   17  C14 UNK   900      37.143 -49.364 -62.010  1.00  0.00     0.306 A 
HETATM   18  C15 UNK   900      36.478 -51.021 -60.594  1.00  0.00     0.296 A 
ENDROOT
BRANCH  17  19
HETATM   19  O3  UNK   900      37.553 -48.090 -61.537  1.00  0.00    -0.366 OA
HETATM   20  H18 UNK   900      37.917 -47.576 -62.277  1.00  0.00     0.213 HD
ENDBRANCH  17  19
TORSDOF 1
ENDMDL
MODEL 8
REMARK VINA RESULT:      -6.2      1.719      2.602
REMARK  1 active torsions:
REMARK  status: ('A' for Active; 'I' for Inactive)
REMARK    1  A    between atoms: O3_3  and  C14_18 
ROOT
HETATM    1  O1  UNK   900      30.695 -47.687 -60.726  1.00  0.00    -0.281 OA
HETATM    2  O2  UNK   900      29.927 -47.696 -64.858  1.00  0.00    -0.292 OA
HETATM    3  O4  UNK   900      31.808 -45.959 -59.715  1.00  0.00    -0.259 OA
HETATM    4  C1  UNK   900      33.254 -42.775 -65.227  1.00  0.00    -0.043 C 
HETATM    5  C2  UNK   900      31.844 -44.747 -64.902  1.00  0.00     0.026 C 
HETATM    6  C3  UNK   900      32.117 -43.583 -65.872  1.00  0.00     0.019 C 
HETATM    7  C4  UNK   900      32.846 -42.783 -63.746  1.00  0.00     0.043 C 
HETATM    8  C5  UNK   900      32.161 -44.116 -63.563  1.00  0.00    -0.073 C 
HETATM    9  C6  UNK   900      30.422 -45.331 -64.995  1.00  0.00     0.064 C 
HETATM   10  C7  UNK   900      34.621 -43.453 -65.436  1.00  0.00     0.015 C 
HETATM   11  C8  UNK   900      33.314 -41.351 -65.785  1.00  0.00     0.015 C 
HETATM   12  C9  UNK   900      31.892 -44.619 -62.350  1.00  0.00     0.021 C 
HETATM   13  C10 UNK   900      30.329 -46.685 -64.279  1.00  0.00     0.166 C 
HETATM   14  C11 UNK   900      29.961 -45.506 -66.450  1.00  0.00     0.019 C 
HETATM   15  C12 UNK   900      30.669 -46.783 -62.833  1.00  0.00     0.059 A 
HETATM   16  C13 UNK   900      31.303 -45.895 -62.066  1.00  0.00     0.054 A 
HETATM   17  C14 UNK   900      30.281 -47.988 -62.058  1.00  0.00     0.306 A 
HETATM   18  C15 UNK   900      31.319 -46.475 -60.707  1.00  0.00     0.296 A 
ENDROOT
BRANCH  17  19
HETATM   19  O3  UNK   900      30.952 -49.135 -62.558  1.00  0.00    -0.366 OA
HETATM   20  H18 UNK   900      30.592 -49.361 -63.432  1.00  0.00     0.213 HD
ENDBRANCH  17  19
TORSDOF 1
ENDMDL
MODEL 9
REMARK VINA RESULT:      -6.0     22.487     23.966
REMARK  1 active torsions:
REMARK  status: ('A' for Active; 'I' for Inactive)
REMARK    1  A    between atoms: O3_3  and  C14_18 
ROOT
HETATM    1  O1  UNK   900      18.084 -66.223 -64.635  1.00  0.00    -0.281 OA
HETATM    2  O2  UNK   900      18.834 -63.700 -67.911  1.00  0.00    -0.292 OA
HETATM    3  O4  UNK   900      15.950 -66.768 -64.003  1.00  0.00    -0.259 OA
HETATM    4  C1  UNK   900      12.960 -62.796 -68.232  1.00  0.00    -0.043 C 
HETATM    5  C2  UNK   900      15.338 -63.334 -68.029  1.00  0.00     0.026 C 
HETATM    6  C3  UNK   900      14.284 -62.800 -69.015  1.00  0.00     0.019 C 
HETATM    7  C4  UNK   900      13.045 -64.123 -67.463  1.00  0.00     0.043 C 
HETATM    8  C5  UNK   900      14.520 -64.293 -67.190  1.00  0.00    -0.073 C 
HETATM    9  C6  UNK   900      16.563 -63.982 -68.699  1.00  0.00     0.064 C 
HETATM   10  C7  UNK   900      12.873 -61.595 -67.273  1.00  0.00     0.015 C 
HETATM   11  C8  UNK   900      11.754 -62.769 -69.174  1.00  0.00     0.015 C 
HETATM   12  C9  UNK   900      14.984 -65.194 -66.313  1.00  0.00     0.021 C 
HETATM   13  C10 UNK   900      17.712 -64.165 -67.699  1.00  0.00     0.166 C 
HETATM   14  C11 UNK   900      17.072 -63.162 -69.895  1.00  0.00     0.019 C 
HETATM   15  C12 UNK   900      17.501 -64.974 -66.468  1.00  0.00     0.059 A 
HETATM   16  C13 UNK   900      16.352 -65.394 -65.936  1.00  0.00     0.054 A 
HETATM   17  C14 UNK   900      18.666 -65.426 -65.665  1.00  0.00     0.306 A 
HETATM   18  C15 UNK   900      16.726 -66.202 -64.756  1.00  0.00     0.296 A 
ENDROOT
BRANCH  17  19
HETATM   19  O3  UNK   900      19.357 -64.311 -65.124  1.00  0.00    -0.366 OA
HETATM   20  H18 UNK   900      18.913 -64.025 -64.308  1.00  0.00     0.213 HD
ENDBRANCH  17  19
TORSDOF 1
ENDMDL
