MODEL 1
REMARK VINA RESULT:      -7.7      0.000      0.000
REMARK  3 active torsions:
REMARK  status: ('A' for Active; 'I' for Inactive)
REMARK    1  A    between atoms: O1_1  and  C3_5 
REMARK    2  A    between atoms: O2_2  and  C8_10 
REMARK    3  A    between atoms: C2_4  and  C8_10 
ROOT
HETATM    1  C1  UNK   900      22.408 -38.840 -67.139  1.00  0.00     0.000 C 
HETATM    2  C2  UNK   900      22.167 -39.992 -68.163  1.00  0.00     0.031 C 
HETATM    3  C3  UNK   900      21.035 -38.075 -67.255  1.00  0.00     0.062 C 
HETATM    4  C4  UNK   900      21.434 -39.325 -69.336  1.00  0.00     0.011 C 
HETATM    5  C5  UNK   900      20.745 -38.083 -68.769  1.00  0.00     0.038 C 
HETATM    6  C6  UNK   900      22.704 -39.407 -65.730  1.00  0.00     0.017 C 
HETATM    7  C7  UNK   900      23.626 -37.947 -67.536  1.00  0.00     0.040 C 
HETATM    8  C9  UNK   900      19.862 -38.731 -66.508  1.00  0.00     0.046 C 
HETATM    9  C10 UNK   900      22.927 -38.317 -64.674  1.00  0.00     0.034 C 
HETATM   10  C11 UNK   900      24.113 -37.031 -66.446  1.00  0.00    -0.023 C 
HETATM   11  C12 UNK   900      23.794 -37.182 -65.150  1.00  0.00    -0.087 C 
HETATM   12  C15 UNK   900      24.277 -36.230 -64.097  1.00  0.00     0.043 C 
ENDROOT
BRANCH   2  13
HETATM   13  C8  UNK   900      23.380 -40.788 -68.630  1.00  0.00     0.055 C 
HETATM   14  C13 UNK   900      23.076 -42.284 -68.642  1.00  0.00     0.045 C 
HETATM   15  C14 UNK   900      23.827 -40.318 -70.013  1.00  0.00     0.045 C 
BRANCH  13  16
HETATM   16  O2  UNK   900      24.455 -40.547 -67.724  1.00  0.00    -0.390 OA
HETATM   17  H23 UNK   900      24.708 -41.396 -67.324  1.00  0.00     0.210 HD
ENDBRANCH  13  16
ENDBRANCH   2  13
BRANCH   3  18
HETATM   18  O1  UNK   900      21.091 -36.734 -66.780  1.00  0.00    -0.389 OA
HETATM   19  H16 UNK   900      21.315 -36.756 -65.834  1.00  0.00     0.210 HD
ENDBRANCH   3  18
TORSDOF 3
ENDMDL
MODEL 2
REMARK VINA RESULT:      -7.4      2.085      3.994
REMARK  3 active torsions:
REMARK  status: ('A' for Active; 'I' for Inactive)
REMARK    1  A    between atoms: O1_1  and  C3_5 
REMARK    2  A    between atoms: O2_2  and  C8_10 
REMARK    3  A    between atoms: C2_4  and  C8_10 
ROOT
HETATM    1  C1  UNK   900      22.567 -39.232 -68.905  1.00  0.00     0.000 C 
HETATM    2  C2  UNK   900      23.241 -39.238 -70.312  1.00  0.00     0.031 C 
HETATM    3  C3  UNK   900      23.521 -40.222 -68.137  1.00  0.00     0.062 C 
HETATM    4  C4  UNK   900      23.644 -40.701 -70.547  1.00  0.00     0.011 C 
HETATM    5  C5  UNK   900      23.784 -41.340 -69.166  1.00  0.00     0.038 C 
HETATM    6  C6  UNK   900      22.526 -37.802 -68.318  1.00  0.00     0.017 C 
HETATM    7  C7  UNK   900      21.092 -39.744 -68.960  1.00  0.00     0.040 C 
HETATM    8  C9  UNK   900      24.862 -39.615 -67.691  1.00  0.00     0.046 C 
HETATM    9  C10 UNK   900      21.893 -37.738 -66.923  1.00  0.00     0.034 C 
HETATM   10  C11 UNK   900      20.286 -39.464 -67.721  1.00  0.00    -0.023 C 
HETATM   11  C12 UNK   900      20.644 -38.567 -66.787  1.00  0.00    -0.087 C 
HETATM   12  C15 UNK   900      19.827 -38.339 -65.550  1.00  0.00     0.043 C 
ENDROOT
BRANCH   2  13
HETATM   13  C8  UNK   900      22.442 -38.673 -71.482  1.00  0.00     0.055 C 
HETATM   14  C13 UNK   900      23.312 -37.761 -72.344  1.00  0.00     0.045 C 
HETATM   15  C14 UNK   900      21.851 -39.804 -72.320  1.00  0.00     0.045 C 
BRANCH  13  16
HETATM   16  O2  UNK   900      21.356 -37.910 -70.960  1.00  0.00    -0.390 OA
HETATM   17  H23 UNK   900      20.669 -38.530 -70.661  1.00  0.00     0.210 HD
ENDBRANCH  13  16
ENDBRANCH   2  13
BRANCH   3  18
HETATM   18  O1  UNK   900      22.939 -40.774 -66.961  1.00  0.00    -0.389 OA
HETATM   19  H16 UNK   900      23.464 -40.480 -66.197  1.00  0.00     0.210 HD
ENDBRANCH   3  18
TORSDOF 3
ENDMDL
MODEL 3
REMARK VINA RESULT:      -7.3      2.169      3.323
REMARK  3 active torsions:
REMARK  status: ('A' for Active; 'I' for Inactive)
REMARK    1  A    between atoms: O1_1  and  C3_5 
REMARK    2  A    between atoms: O2_2  and  C8_10 
REMARK    3  A    between atoms: C2_4  and  C8_10 
ROOT
HETATM    1  C1  UNK   900      22.641 -39.446 -69.302  1.00  0.00     0.000 C 
HETATM    2  C2  UNK   900      22.148 -40.033 -70.661  1.00  0.00     0.031 C 
HETATM    3  C3  UNK   900      21.906 -40.414 -68.299  1.00  0.00     0.062 C 
HETATM    4  C4  UNK   900      20.670 -40.374 -70.426  1.00  0.00     0.011 C 
HETATM    5  C5  UNK   900      20.504 -40.578 -68.920  1.00  0.00     0.038 C 
HETATM    6  C6  UNK   900      24.185 -39.487 -69.210  1.00  0.00     0.017 C 
HETATM    7  C7  UNK   900      22.213 -37.956 -69.116  1.00  0.00     0.040 C 
HETATM    8  C9  UNK   900      22.557 -41.798 -68.139  1.00  0.00     0.046 C 
HETATM    9  C10 UNK   900      24.726 -38.942 -67.882  1.00  0.00     0.034 C 
HETATM   10  C11 UNK   900      22.917 -37.236 -67.999  1.00  0.00    -0.023 C 
HETATM   11  C12 UNK   900      24.048 -37.679 -67.425  1.00  0.00    -0.087 C 
HETATM   12  C15 UNK   900      24.703 -36.946 -66.292  1.00  0.00     0.043 C 
ENDROOT
BRANCH   2  13
HETATM   13  C8  UNK   900      22.344 -39.182 -71.911  1.00  0.00     0.055 C 
HETATM   14  C13 UNK   900      23.816 -39.138 -72.312  1.00  0.00     0.045 C 
HETATM   15  C14 UNK   900      21.488 -39.714 -73.058  1.00  0.00     0.045 C 
BRANCH  13  16
HETATM   16  O2  UNK   900      21.908 -37.854 -71.626  1.00  0.00    -0.390 OA
HETATM   17  H23 UNK   900      21.269 -37.898 -70.894  1.00  0.00     0.210 HD
ENDBRANCH  13  16
ENDBRANCH   2  13
BRANCH   3  18
HETATM   18  O1  UNK   900      21.793 -39.888 -66.982  1.00  0.00    -0.389 OA
HETATM   19  H16 UNK   900      21.630 -40.629 -66.373  1.00  0.00     0.210 HD
ENDBRANCH   3  18
TORSDOF 3
ENDMDL
MODEL 4
REMARK VINA RESULT:      -7.2      1.704      2.327
REMARK  3 active torsions:
REMARK  status: ('A' for Active; 'I' for Inactive)
REMARK    1  A    between atoms: O1_1  and  C3_5 
REMARK    2  A    between atoms: O2_2  and  C8_10 
REMARK    3  A    between atoms: C2_4  and  C8_10 
ROOT
HETATM    1  C1  UNK   900      22.217 -37.864 -67.302  1.00  0.00     0.000 C 
HETATM    2  C2  UNK   900      22.017 -39.030 -68.319  1.00  0.00     0.031 C 
HETATM    3  C3  UNK   900      21.283 -38.354 -66.131  1.00  0.00     0.062 C 
HETATM    4  C4  UNK   900      20.520 -39.364 -68.241  1.00  0.00     0.011 C 
HETATM    5  C5  UNK   900      20.042 -38.899 -66.866  1.00  0.00     0.038 C 
HETATM    6  C6  UNK   900      23.707 -37.722 -66.911  1.00  0.00     0.017 C 
HETATM    7  C7  UNK   900      21.768 -36.489 -67.891  1.00  0.00     0.040 C 
HETATM    8  C9  UNK   900      21.879 -39.461 -65.247  1.00  0.00     0.046 C 
HETATM    9  C10 UNK   900      23.962 -36.603 -65.894  1.00  0.00     0.034 C 
HETATM   10  C11 UNK   900      22.227 -35.291 -67.105  1.00  0.00    -0.023 C 
HETATM   11  C12 UNK   900      23.210 -35.333 -66.191  1.00  0.00    -0.087 C 
HETATM   12  C15 UNK   900      23.618 -34.122 -65.406  1.00  0.00     0.043 C 
ENDROOT
BRANCH   2  13
HETATM   13  C8  UNK   900      22.475 -38.803 -69.756  1.00  0.00     0.055 C 
HETATM   14  C13 UNK   900      23.270 -40.001 -70.268  1.00  0.00     0.045 C 
HETATM   15  C14 UNK   900      21.277 -38.524 -70.660  1.00  0.00     0.045 C 
BRANCH  13  16
HETATM   16  O2  UNK   900      23.315 -37.650 -69.784  1.00  0.00    -0.390 OA
HETATM   17  H23 UNK   900      23.948 -37.722 -69.049  1.00  0.00     0.210 HD
ENDBRANCH  13  16
ENDBRANCH   2  13
BRANCH   3  18
HETATM   18  O1  UNK   900      20.900 -37.314 -65.239  1.00  0.00    -0.389 OA
HETATM   19  H16 UNK   900      21.704 -36.957 -64.826  1.00  0.00     0.210 HD
ENDBRANCH   3  18
TORSDOF 3
ENDMDL
MODEL 5
REMARK VINA RESULT:      -6.9      2.142      5.085
REMARK  3 active torsions:
REMARK  status: ('A' for Active; 'I' for Inactive)
REMARK    1  A    between atoms: O1_1  and  C3_5 
REMARK    2  A    between atoms: O2_2  and  C8_10 
REMARK    3  A    between atoms: C2_4  and  C8_10 
ROOT
HETATM    1  C1  UNK   900      23.856 -37.329 -68.033  1.00  0.00     0.000 C 
HETATM    2  C2  UNK   900      23.649 -35.938 -67.356  1.00  0.00     0.031 C 
HETATM    3  C3  UNK   900      24.983 -36.965 -69.073  1.00  0.00     0.062 C 
HETATM    4  C4  UNK   900      23.726 -34.927 -68.509  1.00  0.00     0.011 C 
HETATM    5  C5  UNK   900      24.541 -35.592 -69.618  1.00  0.00     0.038 C 
HETATM    6  C6  UNK   900      24.270 -38.394 -66.991  1.00  0.00     0.017 C 
HETATM    7  C7  UNK   900      22.553 -37.846 -68.721  1.00  0.00     0.040 C 
HETATM    8  C9  UNK   900      26.397 -36.847 -68.481  1.00  0.00     0.046 C 
HETATM    9  C10 UNK   900      24.510 -39.779 -67.605  1.00  0.00     0.034 C 
HETATM   10  C11 UNK   900      22.582 -39.300 -69.106  1.00  0.00    -0.023 C 
HETATM   11  C12 UNK   900      23.470 -40.181 -68.616  1.00  0.00    -0.087 C 
HETATM   12  C15 UNK   900      23.485 -41.617 -69.048  1.00  0.00     0.043 C 
ENDROOT
BRANCH   2  13
HETATM   13  C8  UNK   900      22.395 -35.743 -66.511  1.00  0.00     0.055 C 
HETATM   14  C13 UNK   900      22.252 -36.863 -65.485  1.00  0.00     0.045 C 
HETATM   15  C14 UNK   900      22.423 -34.381 -65.822  1.00  0.00     0.045 C 
BRANCH  13  16
HETATM   16  O2  UNK   900      21.260 -35.766 -67.375  1.00  0.00    -0.390 OA
HETATM   17  H23 UNK   900      21.513 -36.232 -68.191  1.00  0.00     0.210 HD
ENDBRANCH  13  16
ENDBRANCH   2  13
BRANCH   3  18
HETATM   18  O1  UNK   900      25.091 -37.898 -70.142  1.00  0.00    -0.389 OA
HETATM   19  H16 UNK   900      24.726 -38.748 -69.841  1.00  0.00     0.210 HD
ENDBRANCH   3  18
TORSDOF 3
ENDMDL
MODEL 6
REMARK VINA RESULT:      -6.9      2.412      5.076
REMARK  3 active torsions:
REMARK  status: ('A' for Active; 'I' for Inactive)
REMARK    1  A    between atoms: O1_1  and  C3_5 
REMARK    2  A    between atoms: O2_2  and  C8_10 
REMARK    3  A    between atoms: C2_4  and  C8_10 
ROOT
HETATM    1  C1  UNK   900      22.764 -36.319 -68.334  1.00  0.00     0.000 C 
HETATM    2  C2  UNK   900      23.793 -35.570 -67.431  1.00  0.00     0.031 C 
HETATM    3  C3  UNK   900      22.106 -35.095 -69.076  1.00  0.00     0.062 C 
HETATM    4  C4  UNK   900      23.046 -34.323 -66.938  1.00  0.00     0.011 C 
HETATM    5  C5  UNK   900      21.947 -34.041 -67.962  1.00  0.00     0.038 C 
HETATM    6  C6  UNK   900      23.478 -37.322 -69.270  1.00  0.00     0.017 C 
HETATM    7  C7  UNK   900      21.731 -37.135 -67.494  1.00  0.00     0.040 C 
HETATM    8  C9  UNK   900      22.945 -34.503 -70.221  1.00  0.00     0.046 C 
HETATM    9  C10 UNK   900      22.516 -38.072 -70.200  1.00  0.00     0.034 C 
HETATM   10  C11 UNK   900      20.924 -38.127 -68.286  1.00  0.00    -0.023 C 
HETATM   11  C12 UNK   900      21.263 -38.549 -69.515  1.00  0.00    -0.087 C 
HETATM   12  C15 UNK   900      20.415 -39.518 -70.285  1.00  0.00     0.043 C 
ENDROOT
BRANCH   2  13
HETATM   13  C8  UNK   900      24.422 -36.349 -66.281  1.00  0.00     0.055 C 
HETATM   14  C13 UNK   900      25.928 -36.108 -66.222  1.00  0.00     0.045 C 
HETATM   15  C14 UNK   900      23.764 -35.970 -64.957  1.00  0.00     0.045 C 
BRANCH  13  16
HETATM   16  O2  UNK   900      24.189 -37.740 -66.496  1.00  0.00    -0.390 OA
HETATM   17  H23 UNK   900      24.398 -37.939 -67.425  1.00  0.00     0.210 HD
ENDBRANCH  13  16
ENDBRANCH   2  13
BRANCH   3  18
HETATM   18  O1  UNK   900      20.836 -35.392 -69.646  1.00  0.00    -0.389 OA
HETATM   19  H16 UNK   900      20.153 -34.955 -69.108  1.00  0.00     0.210 HD
ENDBRANCH   3  18
TORSDOF 3
ENDMDL
MODEL 7
REMARK VINA RESULT:      -6.5      2.745      4.770
REMARK  3 active torsions:
REMARK  status: ('A' for Active; 'I' for Inactive)
REMARK    1  A    between atoms: O1_1  and  C3_5 
REMARK    2  A    between atoms: O2_2  and  C8_10 
REMARK    3  A    between atoms: C2_4  and  C8_10 
ROOT
HETATM    1  C1  UNK   900      22.939 -36.863 -68.606  1.00  0.00     0.000 C 
HETATM    2  C2  UNK   900      23.895 -35.908 -69.386  1.00  0.00     0.031 C 
HETATM    3  C3  UNK   900      23.290 -38.233 -69.300  1.00  0.00     0.062 C 
HETATM    4  C4  UNK   900      23.830 -36.394 -70.841  1.00  0.00     0.011 C 
HETATM    5  C5  UNK   900      23.407 -37.862 -70.791  1.00  0.00     0.038 C 
HETATM    6  C6  UNK   900      23.237 -36.822 -67.088  1.00  0.00     0.017 C 
HETATM    7  C7  UNK   900      21.439 -36.467 -68.786  1.00  0.00     0.040 C 
HETATM    8  C9  UNK   900      24.604 -38.879 -68.831  1.00  0.00     0.046 C 
HETATM    9  C10 UNK   900      22.340 -37.761 -66.271  1.00  0.00     0.034 C 
HETATM   10  C11 UNK   900      20.496 -37.129 -67.819  1.00  0.00    -0.023 C 
HETATM   11  C12 UNK   900      20.893 -37.728 -66.684  1.00  0.00    -0.087 C 
HETATM   12  C15 UNK   900      19.924 -38.403 -65.761  1.00  0.00     0.043 C 
ENDROOT
BRANCH   2  13
HETATM   13  C8  UNK   900      23.642 -34.408 -69.275  1.00  0.00     0.055 C 
HETATM   14  C13 UNK   900      22.629 -34.109 -68.173  1.00  0.00     0.045 C 
HETATM   15  C14 UNK   900      24.950 -33.664 -69.022  1.00  0.00     0.045 C 
BRANCH  13  16
HETATM   16  O2  UNK   900      23.115 -33.946 -70.518  1.00  0.00    -0.390 OA
HETATM   17  H23 UNK   900      23.513 -34.477 -71.229  1.00  0.00     0.210 HD
ENDBRANCH  13  16
ENDBRANCH   2  13
BRANCH   3  18
HETATM   18  O1  UNK   900      22.288 -39.230 -69.126  1.00  0.00    -0.389 OA
HETATM   19  H16 UNK   900      21.419 -38.797 -69.177  1.00  0.00     0.210 HD
ENDBRANCH   3  18
TORSDOF 3
ENDMDL
MODEL 8
REMARK VINA RESULT:      -5.7     14.481     16.778
REMARK  3 active torsions:
REMARK  status: ('A' for Active; 'I' for Inactive)
REMARK    1  A    between atoms: O1_1  and  C3_5 
REMARK    2  A    between atoms: O2_2  and  C8_10 
REMARK    3  A    between atoms: C2_4  and  C8_10 
ROOT
HETATM    1  C1  UNK   900      35.627 -35.234 -57.940  1.00  0.00     0.000 C 
HETATM    2  C2  UNK   900      35.023 -35.740 -56.593  1.00  0.00     0.031 C 
HETATM    3  C3  UNK   900      34.335 -34.633 -58.613  1.00  0.00     0.062 C 
HETATM    4  C4  UNK   900      33.663 -36.340 -56.974  1.00  0.00     0.011 C 
HETATM    5  C5  UNK   900      33.241 -35.666 -58.280  1.00  0.00     0.038 C 
HETATM    6  C6  UNK   900      36.753 -34.204 -57.689  1.00  0.00     0.017 C 
HETATM    7  C7  UNK   900      36.251 -36.397 -58.776  1.00  0.00     0.040 C 
HETATM    8  C9  UNK   900      33.911 -33.253 -58.083  1.00  0.00     0.046 C 
HETATM    9  C10 UNK   900      37.369 -33.654 -58.981  1.00  0.00     0.034 C 
HETATM   10  C11 UNK   900      37.126 -35.950 -59.915  1.00  0.00    -0.023 C 
HETATM   11  C12 UNK   900      37.628 -34.709 -60.024  1.00  0.00    -0.087 C 
HETATM   12  C15 UNK   900      38.473 -34.294 -61.192  1.00  0.00     0.043 C 
ENDROOT
BRANCH   2  13
HETATM   13  C8  UNK   900      35.860 -36.708 -55.762  1.00  0.00     0.055 C 
HETATM   14  C13 UNK   900      35.605 -38.150 -56.190  1.00  0.00     0.045 C 
HETATM   15  C14 UNK   900      37.343 -36.365 -55.877  1.00  0.00     0.045 C 
BRANCH  13  16
HETATM   16  O2  UNK   900      35.488 -36.564 -54.392  1.00  0.00    -0.390 OA
HETATM   17  H23 UNK   900      34.593 -36.185 -54.362  1.00  0.00     0.210 HD
ENDBRANCH  13  16
ENDBRANCH   2  13
BRANCH   3  18
HETATM   18  O1  UNK   900      34.447 -34.484 -60.024  1.00  0.00    -0.389 OA
HETATM   19  H16 UNK   900      35.145 -35.084 -60.337  1.00  0.00     0.210 HD
ENDBRANCH   3  18
TORSDOF 3
ENDMDL
MODEL 9
REMARK VINA RESULT:      -5.5     19.000     20.911
REMARK  3 active torsions:
REMARK  status: ('A' for Active; 'I' for Inactive)
REMARK    1  A    between atoms: O1_1  and  C3_5 
REMARK    2  A    between atoms: O2_2  and  C8_10 
REMARK    3  A    between atoms: C2_4  and  C8_10 
ROOT
HETATM    1  C1  UNK   900      21.702 -31.915 -48.019  1.00  0.00     0.000 C 
HETATM    2  C2  UNK   900      21.245 -33.198 -47.258  1.00  0.00     0.031 C 
HETATM    3  C3  UNK   900      23.213 -31.854 -47.577  1.00  0.00     0.062 C 
HETATM    4  C4  UNK   900      21.935 -33.107 -45.890  1.00  0.00     0.011 C 
HETATM    5  C5  UNK   900      23.165 -32.220 -46.080  1.00  0.00     0.038 C 
HETATM    6  C6  UNK   900      21.489 -32.071 -49.543  1.00  0.00     0.017 C 
HETATM    7  C7  UNK   900      20.897 -30.652 -47.575  1.00  0.00     0.040 C 
HETATM    8  C9  UNK   900      24.143 -32.833 -48.312  1.00  0.00     0.046 C 
HETATM    9  C10 UNK   900      21.943 -30.846 -50.347  1.00  0.00     0.034 C 
HETATM   10  C11 UNK   900      21.051 -29.460 -48.480  1.00  0.00    -0.023 C 
HETATM   11  C12 UNK   900      21.534 -29.534 -49.731  1.00  0.00    -0.087 C 
HETATM   12  C15 UNK   900      21.700 -28.317 -50.592  1.00  0.00     0.043 C 
ENDROOT
BRANCH   2  13
HETATM   13  C8  UNK   900      19.746 -33.446 -47.125  1.00  0.00     0.055 C 
HETATM   14  C13 UNK   900      19.474 -34.844 -46.577  1.00  0.00     0.045 C 
HETATM   15  C14 UNK   900      19.107 -32.384 -46.234  1.00  0.00     0.045 C 
BRANCH  13  16
HETATM   16  O2  UNK   900      19.154 -33.337 -48.418  1.00  0.00    -0.390 OA
HETATM   17  H23 UNK   900      18.555 -32.571 -48.411  1.00  0.00     0.210 HD
ENDBRANCH  13  16
ENDBRANCH   2  13
BRANCH   3  18
HETATM   18  O1  UNK   900      23.801 -30.568 -47.742  1.00  0.00    -0.389 OA
HETATM   19  H16 UNK   900      23.248 -29.920 -47.273  1.00  0.00     0.210 HD
ENDBRANCH   3  18
TORSDOF 3
ENDMDL
