MODEL 1
REMARK VINA RESULT:      -6.4      0.000      0.000
REMARK  2 active torsions:
REMARK  status: ('A' for Active; 'I' for Inactive)
REMARK    1  A    between atoms: O1_1  and  C7_10 
REMARK    2  A    between atoms: O2_2  and  C8_11 
ROOT
HETATM    1  O3  UNK   900      31.337 -44.051 -66.309  1.00  0.00    -0.333 OA
HETATM    2  C1  UNK   900      31.312 -47.024 -61.971  1.00  0.00    -0.001 C 
HETATM    3  C2  UNK   900      30.715 -47.596 -63.292  1.00  0.00     0.024 C 
HETATM    4  C3  UNK   900      30.422 -49.239 -61.475  1.00  0.00    -0.047 C 
HETATM    5  C4  UNK   900      30.645 -47.854 -60.858  1.00  0.00     0.014 C 
HETATM    6  C5  UNK   900      29.926 -48.865 -62.875  1.00  0.00     0.016 C 
HETATM    7  C6  UNK   900      31.230 -45.493 -61.741  1.00  0.00     0.019 C 
HETATM    8  C7  UNK   900      29.836 -46.654 -64.137  1.00  0.00     0.158 C 
HETATM    9  C8  UNK   900      32.085 -44.688 -62.752  1.00  0.00     0.158 C 
HETATM   10  C9  UNK   900      31.719 -50.061 -61.541  1.00  0.00     0.015 C 
HETATM   11  C10 UNK   900      29.369 -50.032 -60.696  1.00  0.00     0.015 C 
HETATM   12  C11 UNK   900      30.606 -45.537 -64.769  1.00  0.00     0.004 A 
HETATM   13  C12 UNK   900      31.574 -44.682 -64.154  1.00  0.00     0.004 A 
HETATM   14  C13 UNK   900      31.689 -45.130 -60.316  1.00  0.00     0.013 C 
HETATM   15  C14 UNK   900      30.509 -45.097 -66.077  1.00  0.00     0.151 A 
HETATM   16  C15 UNK   900      31.976 -43.804 -65.143  1.00  0.00     0.151 A 
ENDROOT
BRANCH   8  17
HETATM   17  O1  UNK   900      29.187 -47.452 -65.139  1.00  0.00    -0.390 OA
HETATM   18  H19 UNK   900      29.125 -48.362 -64.803  1.00  0.00     0.210 HD
ENDBRANCH   8  17
BRANCH   9  19
HETATM   19  O2  UNK   900      33.437 -45.153 -62.702  1.00  0.00    -0.390 OA
HETATM   20  H22 UNK   900      33.457 -46.047 -63.082  1.00  0.00     0.210 HD
ENDBRANCH   9  19
TORSDOF 2
ENDMDL
MODEL 2
REMARK VINA RESULT:      -6.0      1.693      2.233
REMARK  2 active torsions:
REMARK  status: ('A' for Active; 'I' for Inactive)
REMARK    1  A    between atoms: O1_1  and  C7_10 
REMARK    2  A    between atoms: O2_2  and  C8_11 
ROOT
HETATM    1  O3  UNK   900      31.653 -45.399 -65.292  1.00  0.00    -0.333 OA
HETATM    2  C1  UNK   900      32.609 -48.146 -60.910  1.00  0.00    -0.001 C 
HETATM    3  C2  UNK   900      32.370 -48.905 -62.250  1.00  0.00     0.024 C 
HETATM    4  C3  UNK   900      32.676 -50.534 -60.423  1.00  0.00    -0.047 C 
HETATM    5  C4  UNK   900      32.279 -49.182 -59.819  1.00  0.00     0.014 C 
HETATM    6  C5  UNK   900      32.147 -50.387 -61.853  1.00  0.00     0.016 C 
HETATM    7  C6  UNK   900      31.896 -46.783 -60.712  1.00  0.00     0.019 C 
HETATM    8  C7  UNK   900      31.230 -48.400 -63.156  1.00  0.00     0.158 C 
HETATM    9  C8  UNK   900      32.401 -45.694 -61.690  1.00  0.00     0.158 C 
HETATM   10  C9  UNK   900      34.196 -50.753 -60.408  1.00  0.00     0.015 C 
HETATM   11  C10 UNK   900      31.997 -51.692 -59.686  1.00  0.00     0.015 C 
HETATM   12  C11 UNK   900      31.510 -47.063 -63.767  1.00  0.00     0.004 A 
HETATM   13  C12 UNK   900      32.009 -45.890 -63.117  1.00  0.00     0.004 A 
HETATM   14  C13 UNK   900      32.089 -46.272 -59.271  1.00  0.00     0.013 C 
HETATM   15  C14 UNK   900      31.313 -46.693 -65.085  1.00  0.00     0.151 A 
HETATM   16  C15 UNK   900      32.071 -44.919 -64.100  1.00  0.00     0.151 A 
ENDROOT
BRANCH   8  17
HETATM   17  O1  UNK   900      31.019 -49.388 -64.176  1.00  0.00    -0.390 OA
HETATM   18  H19 UNK   900      31.446 -50.213 -63.887  1.00  0.00     0.210 HD
ENDBRANCH   8  17
BRANCH   9  19
HETATM   19  O2  UNK   900      33.820 -45.566 -61.563  1.00  0.00    -0.390 OA
HETATM   20  H22 UNK   900      34.062 -44.663 -61.828  1.00  0.00     0.210 HD
ENDBRANCH   9  19
TORSDOF 2
ENDMDL
MODEL 3
REMARK VINA RESULT:      -5.7      3.448      5.332
REMARK  2 active torsions:
REMARK  status: ('A' for Active; 'I' for Inactive)
REMARK    1  A    between atoms: O1_1  and  C7_10 
REMARK    2  A    between atoms: O2_2  and  C8_11 
ROOT
HETATM    1  O3  UNK   900      29.806 -46.851 -61.677  1.00  0.00    -0.333 OA
HETATM    2  C1  UNK   900      34.424 -49.273 -62.361  1.00  0.00    -0.001 C 
HETATM    3  C2  UNK   900      33.946 -48.934 -60.917  1.00  0.00     0.024 C 
HETATM    4  C3  UNK   900      36.187 -49.961 -60.824  1.00  0.00    -0.047 C 
HETATM    5  C4  UNK   900      35.953 -49.412 -62.236  1.00  0.00     0.014 C 
HETATM    6  C5  UNK   900      35.191 -49.128 -60.012  1.00  0.00     0.016 C 
HETATM    7  C6  UNK   900      33.976 -48.335 -63.512  1.00  0.00     0.019 C 
HETATM    8  C7  UNK   900      33.310 -47.549 -60.689  1.00  0.00     0.158 C 
HETATM    9  C8  UNK   900      32.447 -48.376 -63.757  1.00  0.00     0.158 C 
HETATM   10  C9  UNK   900      35.875 -51.462 -60.725  1.00  0.00     0.015 C 
HETATM   11  C10 UNK   900      37.628 -49.720 -60.366  1.00  0.00     0.015 C 
HETATM   12  C11 UNK   900      31.976 -47.396 -61.349  1.00  0.00     0.004 A 
HETATM   13  C12 UNK   900      31.615 -47.750 -62.687  1.00  0.00     0.004 A 
HETATM   14  C13 UNK   900      34.690 -48.706 -64.826  1.00  0.00     0.013 C 
HETATM   15  C14 UNK   900      30.831 -46.854 -60.793  1.00  0.00     0.151 A 
HETATM   16  C15 UNK   900      30.286 -47.392 -62.820  1.00  0.00     0.151 A 
ENDROOT
BRANCH   8  17
HETATM   17  O1  UNK   900      33.199 -47.353 -59.271  1.00  0.00    -0.390 OA
HETATM   18  H19 UNK   900      33.539 -46.465 -59.064  1.00  0.00     0.210 HD
ENDBRANCH   8  17
BRANCH   9  19
HETATM   19  O2  UNK   900      32.042 -49.727 -63.994  1.00  0.00    -0.390 OA
HETATM   20  H22 UNK   900      32.831 -50.233 -64.249  1.00  0.00     0.210 HD
ENDBRANCH   9  19
TORSDOF 2
ENDMDL
MODEL 4
REMARK VINA RESULT:      -5.6     10.179     11.749
REMARK  2 active torsions:
REMARK  status: ('A' for Active; 'I' for Inactive)
REMARK    1  A    between atoms: O1_1  and  C7_10 
REMARK    2  A    between atoms: O2_2  and  C8_11 
ROOT
HETATM    1  O3  UNK   900      35.112 -36.098 -58.189  1.00  0.00    -0.333 OA
HETATM    2  C1  UNK   900      37.349 -40.644 -56.778  1.00  0.00    -0.001 C 
HETATM    3  C2  UNK   900      36.823 -39.677 -55.675  1.00  0.00     0.024 C 
HETATM    4  C3  UNK   900      37.889 -41.634 -54.616  1.00  0.00    -0.047 C 
HETATM    5  C4  UNK   900      38.397 -41.513 -56.058  1.00  0.00     0.014 C 
HETATM    6  C5  UNK   900      37.424 -40.200 -54.345  1.00  0.00     0.016 C 
HETATM    7  C6  UNK   900      37.860 -40.021 -58.104  1.00  0.00     0.019 C 
HETATM    8  C7  UNK   900      37.109 -38.174 -55.856  1.00  0.00     0.158 C 
HETATM    9  C8  UNK   900      36.735 -39.332 -58.915  1.00  0.00     0.158 C 
HETATM   10  C9  UNK   900      36.729 -42.633 -54.492  1.00  0.00     0.015 C 
HETATM   11  C10 UNK   900      39.013 -42.052 -53.665  1.00  0.00     0.015 C 
HETATM   12  C11 UNK   900      36.353 -37.561 -56.993  1.00  0.00     0.004 A 
HETATM   13  C12 UNK   900      36.206 -38.068 -58.321  1.00  0.00     0.004 A 
HETATM   14  C13 UNK   900      38.514 -41.096 -58.993  1.00  0.00     0.013 C 
HETATM   15  C14 UNK   900      35.665 -36.361 -56.982  1.00  0.00     0.151 A 
HETATM   16  C15 UNK   900      35.443 -37.132 -58.995  1.00  0.00     0.151 A 
ENDROOT
BRANCH   8  17
HETATM   17  O1  UNK   900      36.783 -37.520 -54.619  1.00  0.00    -0.390 OA
HETATM   18  H19 UNK   900      35.842 -37.277 -54.649  1.00  0.00     0.210 HD
ENDBRANCH   8  17
BRANCH   9  19
HETATM   19  O2  UNK   900      35.679 -40.268 -59.149  1.00  0.00    -0.390 OA
HETATM   20  H22 UNK   900      35.766 -40.982 -58.496  1.00  0.00     0.210 HD
ENDBRANCH   9  19
TORSDOF 2
ENDMDL
MODEL 5
REMARK VINA RESULT:      -5.4     33.702     35.893
REMARK  2 active torsions:
REMARK  status: ('A' for Active; 'I' for Inactive)
REMARK    1  A    between atoms: O1_1  and  C7_10 
REMARK    2  A    between atoms: O2_2  and  C8_11 
ROOT
HETATM    1  O3  UNK   900       7.051 -65.774 -49.370  1.00  0.00    -0.333 OA
HETATM    2  C1  UNK   900       6.280 -70.370 -51.808  1.00  0.00    -0.001 C 
HETATM    3  C2  UNK   900       5.261 -69.211 -52.024  1.00  0.00     0.024 C 
HETATM    4  C3  UNK   900       4.499 -71.216 -53.243  1.00  0.00    -0.047 C 
HETATM    5  C4  UNK   900       5.488 -71.645 -52.152  1.00  0.00     0.014 C 
HETATM    6  C5  UNK   900       4.028 -69.864 -52.700  1.00  0.00     0.016 C 
HETATM    7  C6  UNK   900       7.016 -70.443 -50.445  1.00  0.00     0.019 C 
HETATM    8  C7  UNK   900       4.844 -68.395 -50.786  1.00  0.00     0.158 C 
HETATM    9  C8  UNK   900       7.973 -69.246 -50.215  1.00  0.00     0.158 C 
HETATM   10  C9  UNK   900       5.177 -71.064 -54.613  1.00  0.00     0.015 C 
HETATM   11  C10 UNK   900       3.342 -72.210 -53.365  1.00  0.00     0.015 C 
HETATM   12  C11 UNK   900       5.949 -67.549 -50.236  1.00  0.00     0.004 A 
HETATM   13  C12 UNK   900       7.303 -67.932 -49.982  1.00  0.00     0.004 A 
HETATM   14  C13 UNK   900       7.831 -71.746 -50.335  1.00  0.00     0.013 C 
HETATM   15  C14 UNK   900       5.865 -66.226 -49.839  1.00  0.00     0.151 A 
HETATM   16  C15 UNK   900       7.916 -66.810 -49.457  1.00  0.00     0.151 A 
ENDROOT
BRANCH   8  17
HETATM   17  O1  UNK   900       3.722 -67.581 -51.162  1.00  0.00    -0.390 OA
HETATM   18  H19 UNK   900       3.183 -67.427 -50.368  1.00  0.00     0.210 HD
ENDBRANCH   8  17
BRANCH   9  19
HETATM   19  O2  UNK   900       8.895 -69.163 -51.305  1.00  0.00    -0.390 OA
HETATM   20  H22 UNK   900       8.694 -69.888 -51.920  1.00  0.00     0.210 HD
ENDBRANCH   9  19
TORSDOF 2
ENDMDL
MODEL 6
REMARK VINA RESULT:      -5.4     32.144     34.889
REMARK  2 active torsions:
REMARK  status: ('A' for Active; 'I' for Inactive)
REMARK    1  A    between atoms: O1_1  and  C7_10 
REMARK    2  A    between atoms: O2_2  and  C8_11 
ROOT
HETATM    1  O3  UNK   900       8.449 -65.816 -52.568  1.00  0.00    -0.333 OA
HETATM    2  C1  UNK   900       6.752 -68.385 -48.304  1.00  0.00    -0.001 C 
HETATM    3  C2  UNK   900       8.038 -68.880 -49.032  1.00  0.00     0.024 C 
HETATM    4  C3  UNK   900       7.515 -70.398 -47.159  1.00  0.00    -0.047 C 
HETATM    5  C4  UNK   900       6.248 -69.620 -47.534  1.00  0.00     0.014 C 
HETATM    6  C5  UNK   900       8.324 -70.290 -48.454  1.00  0.00     0.016 C 
HETATM    7  C6  UNK   900       5.657 -67.693 -49.157  1.00  0.00     0.019 C 
HETATM    8  C7  UNK   900       8.012 -68.910 -50.573  1.00  0.00     0.158 C 
HETATM    9  C8  UNK   900       6.125 -66.341 -49.750  1.00  0.00     0.158 C 
HETATM   10  C9  UNK   900       8.261 -69.757 -45.978  1.00  0.00     0.015 C 
HETATM   11  C10 UNK   900       7.192 -71.854 -46.814  1.00  0.00     0.015 C 
HETATM   12  C11 UNK   900       7.983 -67.547 -51.189  1.00  0.00     0.004 A 
HETATM   13  C12 UNK   900       7.150 -66.441 -50.830  1.00  0.00     0.004 A 
HETATM   14  C13 UNK   900       4.389 -67.445 -48.318  1.00  0.00     0.013 C 
HETATM   15  C14 UNK   900       8.745 -67.099 -52.253  1.00  0.00     0.151 A 
HETATM   16  C15 UNK   900       7.484 -65.424 -51.706  1.00  0.00     0.151 A 
ENDROOT
BRANCH   8  17
HETATM   17  O1  UNK   900       9.170 -69.639 -51.010  1.00  0.00    -0.390 OA
HETATM   18  H19 UNK   900       9.840 -69.587 -50.307  1.00  0.00     0.210 HD
ENDBRANCH   8  17
BRANCH   9  19
HETATM   19  O2  UNK   900       6.578 -65.492 -48.692  1.00  0.00    -0.390 OA
HETATM   20  H22 UNK   900       6.229 -65.846 -47.857  1.00  0.00     0.210 HD
ENDBRANCH   9  19
TORSDOF 2
ENDMDL
MODEL 7
REMARK VINA RESULT:      -5.3     22.642     24.456
REMARK  2 active torsions:
REMARK  status: ('A' for Active; 'I' for Inactive)
REMARK    1  A    between atoms: O1_1  and  C7_10 
REMARK    2  A    between atoms: O2_2  and  C8_11 
ROOT
HETATM    1  O3  UNK   900      24.561 -22.202 -55.207  1.00  0.00    -0.333 OA
HETATM    2  C1  UNK   900      23.818 -26.200 -51.871  1.00  0.00    -0.001 C 
HETATM    3  C2  UNK   900      25.132 -26.137 -52.707  1.00  0.00     0.024 C 
HETATM    4  C3  UNK   900      25.115 -28.199 -51.353  1.00  0.00    -0.047 C 
HETATM    5  C4  UNK   900      23.677 -27.686 -51.492  1.00  0.00     0.014 C 
HETATM    6  C5  UNK   900      25.784 -27.536 -52.560  1.00  0.00     0.016 C 
HETATM    7  C6  UNK   900      22.535 -25.590 -52.492  1.00  0.00     0.019 C 
HETATM    8  C7  UNK   900      25.009 -25.739 -54.191  1.00  0.00     0.158 C 
HETATM    9  C8  UNK   900      22.626 -24.054 -52.668  1.00  0.00     0.158 C 
HETATM   10  C9  UNK   900      25.766 -27.752 -50.035  1.00  0.00     0.015 C 
HETATM   11  C10 UNK   900      25.171 -29.726 -51.444  1.00  0.00     0.015 C 
HETATM   12  C11 UNK   900      24.614 -24.309 -54.388  1.00  0.00     0.004 A 
HETATM   13  C12 UNK   900      23.570 -23.590 -53.728  1.00  0.00     0.004 A 
HETATM   14  C13 UNK   900      21.304 -25.909 -51.621  1.00  0.00     0.013 C 
HETATM   15  C14 UNK   900      25.174 -23.407 -55.274  1.00  0.00     0.151 A 
HETATM   16  C15 UNK   900      23.591 -22.319 -54.272  1.00  0.00     0.151 A 
ENDROOT
BRANCH   8  17
HETATM   17  O1  UNK   900      26.274 -26.006 -54.816  1.00  0.00    -0.390 OA
HETATM   18  H19 UNK   900      26.886 -26.324 -54.131  1.00  0.00     0.210 HD
ENDBRANCH   8  17
BRANCH   9  19
HETATM   19  O2  UNK   900      22.936 -23.451 -51.408  1.00  0.00    -0.390 OA
HETATM   20  H22 UNK   900      22.352 -22.683 -51.295  1.00  0.00     0.210 HD
ENDBRANCH   9  19
TORSDOF 2
ENDMDL
MODEL 8
REMARK VINA RESULT:      -5.3      9.719     12.195
REMARK  2 active torsions:
REMARK  status: ('A' for Active; 'I' for Inactive)
REMARK    1  A    between atoms: O1_1  and  C7_10 
REMARK    2  A    between atoms: O2_2  and  C8_11 
ROOT
HETATM    1  O3  UNK   900      37.310 -34.446 -57.767  1.00  0.00    -0.333 OA
HETATM    2  C1  UNK   900      36.351 -39.586 -57.199  1.00  0.00    -0.001 C 
HETATM    3  C2  UNK   900      36.871 -38.767 -55.980  1.00  0.00     0.024 C 
HETATM    4  C3  UNK   900      36.647 -41.140 -55.344  1.00  0.00    -0.047 C 
HETATM    5  C4  UNK   900      36.729 -41.043 -56.872  1.00  0.00     0.014 C 
HETATM    6  C5  UNK   900      37.302 -39.821 -54.927  1.00  0.00     0.016 C 
HETATM    7  C6  UNK   900      36.788 -39.132 -58.616  1.00  0.00     0.019 C 
HETATM    8  C7  UNK   900      38.001 -37.752 -56.239  1.00  0.00     0.158 C 
HETATM    9  C8  UNK   900      36.216 -37.746 -59.005  1.00  0.00     0.158 C 
HETATM   10  C9  UNK   900      35.196 -41.228 -54.845  1.00  0.00     0.015 C 
HETATM   11  C10 UNK   900      37.428 -42.349 -54.822  1.00  0.00     0.015 C 
HETATM   12  C11 UNK   900      37.564 -36.578 -57.057  1.00  0.00     0.004 A 
HETATM   13  C12 UNK   900      36.797 -36.588 -58.264  1.00  0.00     0.004 A 
HETATM   14  C13 UNK   900      36.345 -40.158 -59.678  1.00  0.00     0.013 C 
HETATM   15  C14 UNK   900      37.843 -35.245 -56.814  1.00  0.00     0.151 A 
HETATM   16  C15 UNK   900      36.680 -35.263 -58.641  1.00  0.00     0.151 A 
ENDROOT
BRANCH   8  17
HETATM   17  O1  UNK   900      38.497 -37.323 -54.961  1.00  0.00    -0.390 OA
HETATM   18  H19 UNK   900      38.546 -36.352 -54.970  1.00  0.00     0.210 HD
ENDBRANCH   8  17
BRANCH   9  19
HETATM   19  O2  UNK   900      34.792 -37.771 -58.879  1.00  0.00    -0.390 OA
HETATM   20  H22 UNK   900      34.525 -38.689 -58.706  1.00  0.00     0.210 HD
ENDBRANCH   9  19
TORSDOF 2
ENDMDL
MODEL 9
REMARK VINA RESULT:      -5.2     33.747     35.258
REMARK  2 active torsions:
REMARK  status: ('A' for Active; 'I' for Inactive)
REMARK    1  A    between atoms: O1_1  and  C7_10 
REMARK    2  A    between atoms: O2_2  and  C8_11 
ROOT
HETATM    1  O3  UNK   900      10.479 -70.738 -48.482  1.00  0.00    -0.333 OA
HETATM    2  C1  UNK   900       6.177 -67.785 -49.140  1.00  0.00    -0.001 C 
HETATM    3  C2  UNK   900       6.939 -68.313 -50.392  1.00  0.00     0.024 C 
HETATM    4  C3  UNK   900       5.055 -66.893 -51.112  1.00  0.00    -0.047 C 
HETATM    5  C4  UNK   900       5.396 -66.561 -49.654  1.00  0.00     0.014 C 
HETATM    6  C5  UNK   900       6.372 -67.511 -51.591  1.00  0.00     0.016 C 
HETATM    7  C6  UNK   900       7.000 -67.505 -47.855  1.00  0.00     0.019 C 
HETATM    8  C7  UNK   900       8.478 -68.248 -50.364  1.00  0.00     0.158 C 
HETATM    9  C8  UNK   900       7.602 -68.790 -47.236  1.00  0.00     0.158 C 
HETATM   10  C9  UNK   900       3.893 -67.891 -51.224  1.00  0.00     0.015 C 
HETATM   11  C10 UNK   900       4.705 -65.628 -51.901  1.00  0.00     0.015 C 
HETATM   12  C11 UNK   900       9.092 -69.195 -49.380  1.00  0.00     0.004 A 
HETATM   13  C12 UNK   900       8.709 -69.415 -48.020  1.00  0.00     0.004 A 
HETATM   14  C13 UNK   900       6.127 -66.813 -46.790  1.00  0.00     0.013 C 
HETATM   15  C14 UNK   900      10.174 -70.029 -49.594  1.00  0.00     0.151 A 
HETATM   16  C15 UNK   900       9.592 -70.361 -47.534  1.00  0.00     0.151 A 
ENDROOT
BRANCH   8  17
HETATM   17  O1  UNK   900       8.947 -68.524 -51.693  1.00  0.00    -0.390 OA
HETATM   18  H19 UNK   900       8.173 -68.582 -52.277  1.00  0.00     0.210 HD
ENDBRANCH   8  17
BRANCH   9  19
HETATM   19  O2  UNK   900       6.555 -69.733 -46.992  1.00  0.00    -0.390 OA
HETATM   20  H22 UNK   900       6.242 -70.059 -47.852  1.00  0.00     0.210 HD
ENDBRANCH   9  19
TORSDOF 2
ENDMDL
