MODEL 1
REMARK VINA RESULT:      -8.0      0.000      0.000
REMARK  3 active torsions:
REMARK  status: ('A' for Active; 'I' for Inactive)
REMARK    1  A    between atoms: O1_1  and  C9_12 
REMARK    2  A    between atoms: O3_3  and  C12_15 
REMARK    3  A    between atoms: C2_5  and  C12_15 
ROOT
HETATM    1  O2  UNK   900      22.122 -34.224 -70.091  1.00  0.00    -0.294 OA
HETATM    2  C1  UNK   900      23.228 -35.208 -66.698  1.00  0.00    -0.022 A 
HETATM    3  C2  UNK   900      22.841 -34.237 -67.830  1.00  0.00     0.053 A 
HETATM    4  C3  UNK   900      22.772 -36.663 -66.770  1.00  0.00     0.003 C 
HETATM    5  C4  UNK   900      24.259 -34.751 -67.711  1.00  0.00     0.031 A 
HETATM    6  C5  UNK   900      22.108 -37.082 -68.094  1.00  0.00     0.027 C 
HETATM    7  C6  UNK   900      21.733 -37.057 -65.716  1.00  0.00     0.014 C 
HETATM    8  C7  UNK   900      22.068 -34.774 -68.997  1.00  0.00     0.167 C 
HETATM    9  C8  UNK   900      21.169 -38.401 -66.207  1.00  0.00    -0.047 C 
HETATM   10  C9  UNK   900      21.233 -35.996 -68.734  1.00  0.00     0.193 C 
HETATM   11  C10 UNK   900      21.289 -38.340 -67.746  1.00  0.00     0.016 C 
HETATM   12  C11 UNK   900      23.443 -34.696 -65.289  1.00  0.00     0.017 C 
HETATM   13  C13 UNK   900      22.001 -39.571 -65.655  1.00  0.00     0.015 C 
HETATM   14  C14 UNK   900      19.712 -38.577 -65.765  1.00  0.00     0.015 C 
ENDROOT
BRANCH   3  15
HETATM   15  C12 UNK   900      22.580 -32.789 -67.483  1.00  0.00     0.182 C 
BRANCH  15  16
HETATM   16  O3  UNK   900      21.202 -32.523 -67.652  1.00  0.00    -0.400 OA
HETATM   17  H22 UNK   900      20.782 -32.615 -66.780  1.00  0.00     0.209 HD
ENDBRANCH  15  16
ENDBRANCH   3  15
BRANCH  10  18
HETATM   18  O1  UNK   900      20.152 -35.608 -67.908  1.00  0.00    -0.388 OA
HETATM   19  H21 UNK   900      19.794 -34.775 -68.262  1.00  0.00     0.210 HD
ENDBRANCH  10  18
TORSDOF 3
ENDMDL
MODEL 2
REMARK VINA RESULT:      -7.3      2.718      5.038
REMARK  3 active torsions:
REMARK  status: ('A' for Active; 'I' for Inactive)
REMARK    1  A    between atoms: O1_1  and  C9_12 
REMARK    2  A    between atoms: O3_3  and  C12_15 
REMARK    3  A    between atoms: C2_5  and  C12_15 
ROOT
HETATM    1  O2  UNK   900      19.697 -40.677 -68.929  1.00  0.00    -0.294 OA
HETATM    2  C1  UNK   900      23.179 -40.132 -67.800  1.00  0.00    -0.022 A 
HETATM    3  C2  UNK   900      22.058 -40.492 -68.793  1.00  0.00     0.053 A 
HETATM    4  C3  UNK   900      22.844 -39.316 -66.554  1.00  0.00     0.003 C 
HETATM    5  C4  UNK   900      22.636 -41.544 -67.873  1.00  0.00     0.031 A 
HETATM    6  C5  UNK   900      21.343 -39.080 -66.303  1.00  0.00     0.027 C 
HETATM    7  C6  UNK   900      23.427 -37.899 -66.545  1.00  0.00     0.014 C 
HETATM    8  C7  UNK   900      20.657 -40.069 -68.470  1.00  0.00     0.167 C 
HETATM    9  C8  UNK   900      22.671 -37.173 -65.420  1.00  0.00    -0.047 C 
HETATM   10  C9  UNK   900      20.515 -38.868 -67.577  1.00  0.00     0.193 C 
HETATM   11  C10 UNK   900      21.284 -37.852 -65.375  1.00  0.00     0.016 C 
HETATM   12  C11 UNK   900      24.606 -39.968 -68.281  1.00  0.00     0.017 C 
HETATM   13  C13 UNK   900      23.396 -37.353 -64.076  1.00  0.00     0.015 C 
HETATM   14  C14 UNK   900      22.552 -35.675 -65.721  1.00  0.00     0.015 C 
ENDROOT
BRANCH   3  15
HETATM   15  C12 UNK   900      22.395 -40.574 -70.265  1.00  0.00     0.182 C 
BRANCH  15  16
HETATM   16  O3  UNK   900      21.716 -39.536 -70.943  1.00  0.00    -0.400 OA
HETATM   17  H22 UNK   900      21.848 -38.722 -70.429  1.00  0.00     0.209 HD
ENDBRANCH  15  16
ENDBRANCH   3  15
BRANCH  10  18
HETATM   18  O1  UNK   900      20.928 -37.733 -68.315  1.00  0.00    -0.388 OA
HETATM   19  H21 UNK   900      21.094 -38.020 -69.230  1.00  0.00     0.210 HD
ENDBRANCH  10  18
TORSDOF 3
ENDMDL
MODEL 3
REMARK VINA RESULT:      -7.1      3.061      5.547
REMARK  3 active torsions:
REMARK  status: ('A' for Active; 'I' for Inactive)
REMARK    1  A    between atoms: O1_1  and  C9_12 
REMARK    2  A    between atoms: O3_3  and  C12_15 
REMARK    3  A    between atoms: C2_5  and  C12_15 
ROOT
HETATM    1  O2  UNK   900      19.991 -40.530 -69.951  1.00  0.00    -0.294 OA
HETATM    2  C1  UNK   900      22.983 -39.206 -68.223  1.00  0.00    -0.022 A 
HETATM    3  C2  UNK   900      22.155 -40.223 -69.030  1.00  0.00     0.053 A 
HETATM    4  C3  UNK   900      22.538 -37.747 -68.173  1.00  0.00     0.003 C 
HETATM    5  C4  UNK   900      22.110 -40.224 -67.518  1.00  0.00     0.031 A 
HETATM    6  C5  UNK   900      21.161 -37.455 -68.798  1.00  0.00     0.027 C 
HETATM    7  C6  UNK   900      23.468 -36.772 -68.902  1.00  0.00     0.014 C 
HETATM    8  C7  UNK   900      20.901 -39.749 -69.701  1.00  0.00     0.167 C 
HETATM    9  C8  UNK   900      22.649 -35.478 -69.036  1.00  0.00    -0.047 C 
HETATM   10  C9  UNK   900      20.846 -38.287 -70.048  1.00  0.00     0.193 C 
HETATM   11  C10 UNK   900      21.179 -35.946 -69.109  1.00  0.00     0.016 C 
HETATM   12  C11 UNK   900      24.474 -39.404 -68.040  1.00  0.00     0.017 C 
HETATM   13  C13 UNK   900      22.859 -34.576 -67.808  1.00  0.00     0.015 C 
HETATM   14  C14 UNK   900      23.054 -34.702 -70.294  1.00  0.00     0.015 C 
ENDROOT
BRANCH   3  15
HETATM   15  C12 UNK   900      22.877 -41.359 -69.719  1.00  0.00     0.182 C 
BRANCH  15  16
HETATM   16  O3  UNK   900      22.135 -42.548 -69.531  1.00  0.00    -0.400 OA
HETATM   17  H22 UNK   900      21.658 -42.723 -70.359  1.00  0.00     0.209 HD
ENDBRANCH  15  16
ENDBRANCH   3  15
BRANCH  10  18
HETATM   18  O1  UNK   900      21.763 -38.062 -71.101  1.00  0.00    -0.388 OA
HETATM   19  H21 UNK   900      22.176 -37.193 -70.954  1.00  0.00     0.210 HD
ENDBRANCH  10  18
TORSDOF 3
ENDMDL
MODEL 4
REMARK VINA RESULT:      -7.0      3.069      5.692
REMARK  3 active torsions:
REMARK  status: ('A' for Active; 'I' for Inactive)
REMARK    1  A    between atoms: O1_1  and  C9_12 
REMARK    2  A    between atoms: O3_3  and  C12_15 
REMARK    3  A    between atoms: C2_5  and  C12_15 
ROOT
HETATM    1  O2  UNK   900      20.344 -39.156 -66.916  1.00  0.00    -0.294 OA
HETATM    2  C1  UNK   900      23.221 -40.160 -69.016  1.00  0.00    -0.022 A 
HETATM    3  C2  UNK   900      21.736 -39.996 -68.643  1.00  0.00     0.053 A 
HETATM    4  C3  UNK   900      24.269 -39.295 -68.320  1.00  0.00     0.003 C 
HETATM    5  C4  UNK   900      22.515 -41.206 -68.177  1.00  0.00     0.031 A 
HETATM    6  C5  UNK   900      23.749 -38.446 -67.145  1.00  0.00     0.027 C 
HETATM    7  C6  UNK   900      24.945 -38.262 -69.227  1.00  0.00     0.014 C 
HETATM    8  C7  UNK   900      21.375 -39.020 -67.564  1.00  0.00     0.167 C 
HETATM    9  C8  UNK   900      25.651 -37.297 -68.260  1.00  0.00    -0.047 C 
HETATM   10  C9  UNK   900      22.336 -37.884 -67.348  1.00  0.00     0.193 C 
HETATM   11  C10 UNK   900      24.789 -37.321 -66.979  1.00  0.00     0.016 C 
HETATM   12  C11 UNK   900      23.618 -40.614 -70.405  1.00  0.00     0.017 C 
HETATM   13  C13 UNK   900      27.077 -37.786 -67.952  1.00  0.00     0.015 C 
HETATM   14  C14 UNK   900      25.731 -35.887 -68.857  1.00  0.00     0.015 C 
ENDROOT
BRANCH   3  15
HETATM   15  C12 UNK   900      20.694 -40.196 -69.721  1.00  0.00     0.182 C 
BRANCH  15  16
HETATM   16  O3  UNK   900      19.661 -41.012 -69.207  1.00  0.00    -0.400 OA
HETATM   17  H22 UNK   900      19.950 -41.936 -69.302  1.00  0.00     0.209 HD
ENDBRANCH  15  16
ENDBRANCH   3  15
BRANCH  10  18
HETATM   18  O1  UNK   900      22.244 -37.025 -68.468  1.00  0.00    -0.388 OA
HETATM   19  H21 UNK   900      22.995 -37.221 -69.054  1.00  0.00     0.210 HD
ENDBRANCH  10  18
TORSDOF 3
ENDMDL
MODEL 5
REMARK VINA RESULT:      -6.9      3.373      5.780
REMARK  3 active torsions:
REMARK  status: ('A' for Active; 'I' for Inactive)
REMARK    1  A    between atoms: O1_1  and  C9_12 
REMARK    2  A    between atoms: O3_3  and  C12_15 
REMARK    3  A    between atoms: C2_5  and  C12_15 
ROOT
HETATM    1  O2  UNK   900      22.849 -42.318 -67.813  1.00  0.00    -0.294 OA
HETATM    2  C1  UNK   900      22.030 -39.135 -69.514  1.00  0.00    -0.022 A 
HETATM    3  C2  UNK   900      21.838 -40.608 -69.109  1.00  0.00     0.053 A 
HETATM    4  C3  UNK   900      22.930 -38.237 -68.669  1.00  0.00     0.003 C 
HETATM    5  C4  UNK   900      22.697 -40.245 -70.300  1.00  0.00     0.031 A 
HETATM    6  C5  UNK   900      23.731 -38.954 -67.567  1.00  0.00     0.027 C 
HETATM    7  C6  UNK   900      22.191 -37.134 -67.904  1.00  0.00     0.014 C 
HETATM    8  C7  UNK   900      22.589 -41.125 -67.920  1.00  0.00     0.167 C 
HETATM    9  C8  UNK   900      23.211 -36.624 -66.872  1.00  0.00    -0.047 C 
HETATM   10  C9  UNK   900      22.979 -40.105 -66.887  1.00  0.00     0.193 C 
HETATM   11  C10 UNK   900      24.104 -37.846 -66.563  1.00  0.00     0.016 C 
HETATM   12  C11 UNK   900      20.937 -38.393 -70.254  1.00  0.00     0.017 C 
HETATM   13  C13 UNK   900      24.057 -35.484 -67.465  1.00  0.00     0.015 C 
HETATM   14  C14 UNK   900      22.505 -36.112 -65.612  1.00  0.00     0.015 C 
ENDROOT
BRANCH   3  15
HETATM   15  C12 UNK   900      20.500 -41.261 -69.373  1.00  0.00     0.182 C 
BRANCH  15  16
HETATM   16  O3  UNK   900      20.715 -42.467 -70.079  1.00  0.00    -0.400 OA
HETATM   17  H22 UNK   900      20.795 -42.239 -71.021  1.00  0.00     0.209 HD
ENDBRANCH  15  16
ENDBRANCH   3  15
BRANCH  10  18
HETATM   18  O1  UNK   900      21.797 -39.678 -66.237  1.00  0.00    -0.388 OA
HETATM   19  H21 UNK   900      21.046 -40.122 -66.668  1.00  0.00     0.210 HD
ENDBRANCH  10  18
TORSDOF 3
ENDMDL
MODEL 6
REMARK VINA RESULT:      -6.5      3.761      5.919
REMARK  3 active torsions:
REMARK  status: ('A' for Active; 'I' for Inactive)
REMARK    1  A    between atoms: O1_1  and  C9_12 
REMARK    2  A    between atoms: O3_3  and  C12_15 
REMARK    3  A    between atoms: C2_5  and  C12_15 
ROOT
HETATM    1  O2  UNK   900      24.246 -41.683 -68.606  1.00  0.00    -0.294 OA
HETATM    2  C1  UNK   900      23.775 -38.459 -70.361  1.00  0.00    -0.022 A 
HETATM    3  C2  UNK   900      23.409 -39.884 -69.906  1.00  0.00     0.053 A 
HETATM    4  C3  UNK   900      24.824 -37.670 -69.584  1.00  0.00     0.003 C 
HETATM    5  C4  UNK   900      24.251 -39.667 -71.144  1.00  0.00     0.031 A 
HETATM    6  C5  UNK   900      25.575 -38.462 -68.497  1.00  0.00     0.027 C 
HETATM    7  C6  UNK   900      24.275 -36.461 -68.819  1.00  0.00     0.014 C 
HETATM    8  C7  UNK   900      24.140 -40.469 -68.736  1.00  0.00     0.167 C 
HETATM    9  C8  UNK   900      25.401 -36.069 -67.849  1.00  0.00    -0.047 C 
HETATM   10  C9  UNK   900      24.711 -39.486 -67.751  1.00  0.00     0.193 C 
HETATM   11  C10 UNK   900      26.138 -37.391 -67.543  1.00  0.00     0.016 C 
HETATM   12  C11 UNK   900      22.754 -37.596 -71.074  1.00  0.00     0.017 C 
HETATM   13  C13 UNK   900      26.361 -35.065 -68.511  1.00  0.00     0.015 C 
HETATM   14  C14 UNK   900      24.829 -35.438 -66.574  1.00  0.00     0.015 C 
ENDROOT
BRANCH   3  15
HETATM   15  C12 UNK   900      21.985 -40.359 -70.091  1.00  0.00     0.182 C 
BRANCH  15  16
HETATM   16  O3  UNK   900      21.401 -40.549 -68.818  1.00  0.00    -0.400 OA
HETATM   17  H22 UNK   900      22.125 -40.566 -68.169  1.00  0.00     0.209 HD
ENDBRANCH  15  16
ENDBRANCH   3  15
BRANCH  10  18
HETATM   18  O1  UNK   900      23.627 -38.891 -67.063  1.00  0.00    -0.388 OA
HETATM   19  H21 UNK   900      23.992 -38.218 -66.463  1.00  0.00     0.210 HD
ENDBRANCH  10  18
TORSDOF 3
ENDMDL
MODEL 7
REMARK VINA RESULT:      -5.8     13.853     16.112
REMARK  3 active torsions:
REMARK  status: ('A' for Active; 'I' for Inactive)
REMARK    1  A    between atoms: O1_1  and  C9_12 
REMARK    2  A    between atoms: O3_3  and  C12_15 
REMARK    3  A    between atoms: C2_5  and  C12_15 
ROOT
HETATM    1  O2  UNK   900      32.048 -45.099 -59.106  1.00  0.00    -0.294 OA
HETATM    2  C1  UNK   900      32.406 -48.000 -61.376  1.00  0.00    -0.022 A 
HETATM    3  C2  UNK   900      32.198 -47.278 -60.031  1.00  0.00     0.053 A 
HETATM    4  C3  UNK   900      32.144 -47.249 -62.678  1.00  0.00     0.003 C 
HETATM    5  C4  UNK   900      33.593 -47.559 -60.545  1.00  0.00     0.031 A 
HETATM    6  C5  UNK   900      31.869 -45.741 -62.528  1.00  0.00     0.027 C 
HETATM    7  C6  UNK   900      30.932 -47.750 -63.470  1.00  0.00     0.014 C 
HETATM    8  C7  UNK   900      31.793 -45.835 -60.052  1.00  0.00     0.167 C 
HETATM    9  C8  UNK   900      30.655 -46.643 -64.501  1.00  0.00    -0.047 C 
HETATM   10  C9  UNK   900      31.060 -45.369 -61.279  1.00  0.00     0.193 C 
HETATM   11  C10 UNK   900      31.134 -45.341 -63.822  1.00  0.00     0.016 C 
HETATM   12  C11 UNK   900      32.217 -49.500 -61.478  1.00  0.00     0.017 C 
HETATM   13  C13 UNK   900      31.453 -46.894 -65.792  1.00  0.00     0.015 C 
HETATM   14  C14 UNK   900      29.163 -46.578 -64.847  1.00  0.00     0.015 C 
ENDROOT
BRANCH   3  15
HETATM   15  C12 UNK   900      31.703 -48.080 -58.849  1.00  0.00     0.182 C 
BRANCH  15  16
HETATM   16  O3  UNK   900      32.405 -47.666 -57.694  1.00  0.00    -0.400 OA
HETATM   17  H22 UNK   900      32.311 -46.700 -57.631  1.00  0.00     0.209 HD
ENDBRANCH  15  16
ENDBRANCH   3  15
BRANCH  10  18
HETATM   18  O1  UNK   900      29.775 -45.962 -61.262  1.00  0.00    -0.388 OA
HETATM   19  H21 UNK   900      29.137 -45.277 -60.998  1.00  0.00     0.210 HD
ENDBRANCH  10  18
TORSDOF 3
ENDMDL
MODEL 8
REMARK VINA RESULT:      -5.5     15.411     17.712
REMARK  3 active torsions:
REMARK  status: ('A' for Active; 'I' for Inactive)
REMARK    1  A    between atoms: O1_1  and  C9_12 
REMARK    2  A    between atoms: O3_3  and  C12_15 
REMARK    3  A    between atoms: C2_5  and  C12_15 
ROOT
HETATM    1  O2  UNK   900      29.771 -46.241 -61.215  1.00  0.00    -0.294 OA
HETATM    2  C1  UNK   900      31.672 -49.231 -60.144  1.00  0.00    -0.022 A 
HETATM    3  C2  UNK   900      30.471 -48.451 -60.710  1.00  0.00     0.053 A 
HETATM    4  C3  UNK   900      33.052 -48.579 -60.136  1.00  0.00     0.003 C 
HETATM    5  C4  UNK   900      30.623 -48.649 -59.218  1.00  0.00     0.031 A 
HETATM    6  C5  UNK   900      33.083 -47.092 -60.535  1.00  0.00     0.027 C 
HETATM    7  C6  UNK   900      34.064 -49.219 -61.091  1.00  0.00     0.014 C 
HETATM    8  C7  UNK   900      30.693 -47.049 -61.190  1.00  0.00     0.167 C 
HETATM    9  C8  UNK   900      35.211 -48.199 -61.185  1.00  0.00    -0.047 C 
HETATM   10  C9  UNK   900      32.088 -46.714 -61.639  1.00  0.00     0.193 C 
HETATM   11  C10 UNK   900      34.538 -46.826 -60.965  1.00  0.00     0.016 C 
HETATM   12  C11 UNK   900      31.703 -50.744 -60.206  1.00  0.00     0.017 C 
HETATM   13  C13 UNK   900      36.258 -48.460 -60.089  1.00  0.00     0.015 C 
HETATM   14  C14 UNK   900      35.898 -48.274 -62.553  1.00  0.00     0.015 C 
ENDROOT
BRANCH   3  15
HETATM   15  C12 UNK   900      29.379 -49.221 -61.420  1.00  0.00     0.182 C 
BRANCH  15  16
HETATM   16  O3  UNK   900      29.338 -48.806 -62.771  1.00  0.00    -0.400 OA
HETATM   17  H22 UNK   900      28.853 -47.964 -62.799  1.00  0.00     0.209 HD
ENDBRANCH  15  16
ENDBRANCH   3  15
BRANCH  10  18
HETATM   18  O1  UNK   900      32.326 -47.405 -62.850  1.00  0.00    -0.388 OA
HETATM   19  H21 UNK   900      32.026 -48.323 -62.731  1.00  0.00     0.210 HD
ENDBRANCH  10  18
TORSDOF 3
ENDMDL
MODEL 9
REMARK VINA RESULT:      -5.4     15.502     16.945
REMARK  3 active torsions:
REMARK  status: ('A' for Active; 'I' for Inactive)
REMARK    1  A    between atoms: O1_1  and  C9_12 
REMARK    2  A    between atoms: O3_3  and  C12_15 
REMARK    3  A    between atoms: C2_5  and  C12_15 
ROOT
HETATM    1  O2  UNK   900      34.821 -35.489 -59.123  1.00  0.00    -0.294 OA
HETATM    2  C1  UNK   900      34.886 -38.074 -56.475  1.00  0.00    -0.022 A 
HETATM    3  C2  UNK   900      34.258 -37.000 -57.383  1.00  0.00     0.053 A 
HETATM    4  C3  UNK   900      36.203 -38.727 -56.886  1.00  0.00     0.003 C 
HETATM    5  C4  UNK   900      34.928 -36.611 -56.084  1.00  0.00     0.031 A 
HETATM    6  C5  UNK   900      36.896 -38.102 -58.111  1.00  0.00     0.027 C 
HETATM    7  C6  UNK   900      36.088 -40.207 -57.265  1.00  0.00     0.014 C 
HETATM    8  C7  UNK   900      34.996 -36.594 -58.623  1.00  0.00     0.167 C 
HETATM    9  C8  UNK   900      37.412 -40.530 -57.979  1.00  0.00    -0.047 C 
HETATM   10  C9  UNK   900      35.933 -37.617 -59.202  1.00  0.00     0.193 C 
HETATM   11  C10 UNK   900      37.842 -39.199 -58.634  1.00  0.00     0.016 C 
HETATM   12  C11 UNK   900      34.010 -38.947 -55.600  1.00  0.00     0.017 C 
HETATM   13  C13 UNK   900      38.473 -40.993 -56.966  1.00  0.00     0.015 C 
HETATM   14  C14 UNK   900      37.213 -41.632 -59.025  1.00  0.00     0.015 C 
ENDROOT
BRANCH   3  15
HETATM   15  C12 UNK   900      32.750 -36.909 -57.459  1.00  0.00     0.182 C 
BRANCH  15  16
HETATM   16  O3  UNK   900      32.348 -37.157 -58.792  1.00  0.00    -0.400 OA
HETATM   17  H22 UNK   900      31.660 -36.507 -59.011  1.00  0.00     0.209 HD
ENDBRANCH  15  16
ENDBRANCH   3  15
BRANCH  10  18
HETATM   18  O1  UNK   900      35.146 -38.662 -59.742  1.00  0.00    -0.388 OA
HETATM   19  H21 UNK   900      35.751 -39.320 -60.126  1.00  0.00     0.210 HD
ENDBRANCH  10  18
TORSDOF 3
ENDMDL
