MODEL 1
REMARK VINA RESULT:      -6.0      0.000      0.000
REMARK  4 active torsions:
REMARK  status: ('A' for Active; 'I' for Inactive)
REMARK    1  A    between atoms: S1_1  and  C2_9 
REMARK    2  A    between atoms: O3_4  and  C8_15 
REMARK    3  A    between atoms: O4_5  and  C9_16 
REMARK    4  A    between atoms: C2_9  and  C8_15 
ROOT
HETATM    1  O1  UNK   900       6.699 -65.693 -48.823  1.00  0.00    -0.269 OA
HETATM    2  O2  UNK   900       7.787 -70.466 -51.043  1.00  0.00    -0.271 OA
HETATM    3  N1  UNK   900       7.516 -67.875 -48.688  1.00  0.00    -0.298 N 
HETATM    4  N2  UNK   900       7.039 -68.263 -51.294  1.00  0.00    -0.326 N 
HETATM    5  C1  UNK   900       8.357 -68.891 -49.329  1.00  0.00     0.189 C 
HETATM    6  C2  UNK   900       7.200 -66.841 -50.877  1.00  0.00     0.186 C 
HETATM    7  C3  UNK   900       8.556 -70.019 -48.299  1.00  0.00     0.076 C 
HETATM    8  C4  UNK   900       7.410 -68.163 -47.318  1.00  0.00     0.077 A 
HETATM    9  C5  UNK   900       8.022 -69.389 -47.050  1.00  0.00    -0.026 A 
HETATM   10  C6  UNK   900       7.069 -66.742 -49.345  1.00  0.00     0.266 C 
HETATM   11  C7  UNK   900       7.673 -69.318 -50.611  1.00  0.00     0.244 C 
HETATM   12  C9  UNK   900       6.803 -67.431 -46.311  1.00  0.00     0.093 A 
HETATM   13  C10 UNK   900       6.197 -68.572 -52.447  1.00  0.00     0.155 C 
HETATM   14  C11 UNK   900       8.053 -69.909 -45.766  1.00  0.00     0.010 A 
HETATM   15  C12 UNK   900       6.834 -67.947 -45.011  1.00  0.00     0.039 A 
HETATM   16  C13 UNK   900       7.456 -69.175 -44.740  1.00  0.00     0.003 A 
ENDROOT
BRANCH   6  17
HETATM   17  S1  UNK   900       8.849 -66.185 -51.353  1.00  0.00    -0.130 SA
HETATM   18  C14 UNK   900       8.941 -66.937 -52.992  1.00  0.00     0.093 C 
ENDBRANCH   6  17
BRANCH   6  19
HETATM   19  C8  UNK   900       6.153 -65.902 -51.510  1.00  0.00     0.217 C 
BRANCH  19  20
HETATM   20  O3  UNK   900       6.693 -64.600 -51.529  1.00  0.00    -0.397 OA
HETATM   21  H15 UNK   900       7.207 -64.471 -50.715  1.00  0.00     0.209 HD
ENDBRANCH  19  20
ENDBRANCH   6  19
BRANCH  12  22
HETATM   22  O4  UNK   900       6.145 -66.260 -46.486  1.00  0.00    -0.358 OA
HETATM   23  H16 UNK   900       5.440 -66.173 -45.822  1.00  0.00     0.217 HD
ENDBRANCH  12  22
TORSDOF 4
ENDMDL
MODEL 2
REMARK VINA RESULT:      -5.7      2.633      5.037
REMARK  4 active torsions:
REMARK  status: ('A' for Active; 'I' for Inactive)
REMARK    1  A    between atoms: S1_1  and  C2_9 
REMARK    2  A    between atoms: O3_4  and  C8_15 
REMARK    3  A    between atoms: O4_5  and  C9_16 
REMARK    4  A    between atoms: C2_9  and  C8_15 
ROOT
HETATM    1  O1  UNK   900       5.600 -68.668 -48.266  1.00  0.00    -0.269 OA
HETATM    2  O2  UNK   900       8.138 -65.517 -51.806  1.00  0.00    -0.271 OA
HETATM    3  N1  UNK   900       5.588 -67.233 -50.107  1.00  0.00    -0.298 N 
HETATM    4  N2  UNK   900       8.255 -67.022 -50.018  1.00  0.00    -0.326 N 
HETATM    5  C1  UNK   900       6.228 -66.903 -51.384  1.00  0.00     0.189 C 
HETATM    6  C2  UNK   900       7.688 -68.246 -49.385  1.00  0.00     0.186 C 
HETATM    7  C3  UNK   900       5.296 -65.911 -52.105  1.00  0.00     0.076 C 
HETATM    8  C4  UNK   900       4.272 -66.745 -50.111  1.00  0.00     0.077 A 
HETATM    9  C5  UNK   900       4.057 -65.991 -51.267  1.00  0.00    -0.026 A 
HETATM   10  C6  UNK   900       6.178 -68.048 -49.157  1.00  0.00     0.266 C 
HETATM   11  C7  UNK   900       7.612 -66.366 -51.084  1.00  0.00     0.244 C 
HETATM   12  C9  UNK   900       3.271 -66.906 -49.167  1.00  0.00     0.093 A 
HETATM   13  C10 UNK   900       9.518 -66.484 -49.516  1.00  0.00     0.155 C 
HETATM   14  C11 UNK   900       2.834 -65.390 -51.513  1.00  0.00     0.010 A 
HETATM   15  C12 UNK   900       2.032 -66.307 -49.411  1.00  0.00     0.039 A 
HETATM   16  C13 UNK   900       1.813 -65.556 -50.577  1.00  0.00     0.003 A 
ENDROOT
BRANCH   6  17
HETATM   17  S1  UNK   900       7.916 -69.722 -50.456  1.00  0.00    -0.130 SA
HETATM   18  C14 UNK   900       9.550 -70.203 -49.857  1.00  0.00     0.093 C 
ENDBRANCH   6  17
BRANCH   6  19
HETATM   19  C8  UNK   900       8.339 -68.583 -48.027  1.00  0.00     0.217 C 
BRANCH  19  20
HETATM   20  O3  UNK   900       7.821 -67.690 -47.065  1.00  0.00    -0.397 OA
HETATM   21  H15 UNK   900       8.310 -66.853 -47.132  1.00  0.00     0.209 HD
ENDBRANCH  19  20
ENDBRANCH   6  19
BRANCH  12  22
HETATM   22  O4  UNK   900       3.404 -67.577 -47.998  1.00  0.00    -0.358 OA
HETATM   23  H16 UNK   900       3.789 -68.455 -48.160  1.00  0.00     0.217 HD
ENDBRANCH  12  22
TORSDOF 4
ENDMDL
MODEL 3
REMARK VINA RESULT:      -5.6      2.567      5.210
REMARK  4 active torsions:
REMARK  status: ('A' for Active; 'I' for Inactive)
REMARK    1  A    between atoms: S1_1  and  C2_9 
REMARK    2  A    between atoms: O3_4  and  C8_15 
REMARK    3  A    between atoms: O4_5  and  C9_16 
REMARK    4  A    between atoms: C2_9  and  C8_15 
ROOT
HETATM    1  O1  UNK   900       6.205 -67.328 -50.328  1.00  0.00    -0.269 OA
HETATM    2  O2  UNK   900       9.544 -71.421 -49.330  1.00  0.00    -0.271 OA
HETATM    3  N1  UNK   900       6.844 -69.559 -50.584  1.00  0.00    -0.298 N 
HETATM    4  N2  UNK   900       8.925 -69.199 -48.939  1.00  0.00    -0.326 N 
HETATM    5  C1  UNK   900       7.309 -70.768 -49.897  1.00  0.00     0.189 C 
HETATM    6  C2  UNK   900       7.803 -68.232 -48.773  1.00  0.00     0.186 C 
HETATM    7  C3  UNK   900       7.178 -71.928 -50.901  1.00  0.00     0.076 C 
HETATM    8  C4  UNK   900       6.221 -69.924 -51.788  1.00  0.00     0.077 A 
HETATM    9  C5  UNK   900       6.374 -71.296 -51.995  1.00  0.00    -0.026 A 
HETATM   10  C6  UNK   900       6.885 -68.301 -50.008  1.00  0.00     0.266 C 
HETATM   11  C7  UNK   900       8.719 -70.510 -49.407  1.00  0.00     0.244 C 
HETATM   12  C9  UNK   900       5.553 -69.133 -52.708  1.00  0.00     0.093 A 
HETATM   13  C10 UNK   900      10.283 -68.772 -48.606  1.00  0.00     0.155 C 
HETATM   14  C11 UNK   900       5.853 -71.914 -53.121  1.00  0.00     0.010 A 
HETATM   15  C12 UNK   900       5.019 -69.749 -53.844  1.00  0.00     0.039 A 
HETATM   16  C13 UNK   900       5.166 -71.130 -54.048  1.00  0.00     0.003 A 
ENDROOT
BRANCH   6  17
HETATM   17  S1  UNK   900       6.794 -68.625 -47.288  1.00  0.00    -0.130 SA
HETATM   18  C14 UNK   900       6.344 -66.933 -46.849  1.00  0.00     0.093 C 
ENDBRANCH   6  17
BRANCH   6  19
HETATM   19  C8  UNK   900       8.279 -66.774 -48.609  1.00  0.00     0.217 C 
BRANCH  19  20
HETATM   20  O3  UNK   900       8.653 -66.295 -49.882  1.00  0.00    -0.397 OA
HETATM   21  H15 UNK   900       9.197 -65.499 -49.760  1.00  0.00     0.209 HD
ENDBRANCH  19  20
ENDBRANCH   6  19
BRANCH  12  22
HETATM   22  O4  UNK   900       5.399 -67.790 -52.614  1.00  0.00    -0.358 OA
HETATM   23  H16 UNK   900       4.888 -67.460 -53.374  1.00  0.00     0.217 HD
ENDBRANCH  12  22
TORSDOF 4
ENDMDL
MODEL 4
REMARK VINA RESULT:      -5.6      4.491      6.327
REMARK  4 active torsions:
REMARK  status: ('A' for Active; 'I' for Inactive)
REMARK    1  A    between atoms: S1_1  and  C2_9 
REMARK    2  A    between atoms: O3_4  and  C8_15 
REMARK    3  A    between atoms: O4_5  and  C9_16 
REMARK    4  A    between atoms: C2_9  and  C8_15 
ROOT
HETATM    1  O1  UNK   900       3.583 -66.157 -46.814  1.00  0.00    -0.269 OA
HETATM    2  O2  UNK   900       4.272 -66.707 -52.117  1.00  0.00    -0.271 OA
HETATM    3  N1  UNK   900       2.791 -66.029 -49.006  1.00  0.00    -0.298 N 
HETATM    4  N2  UNK   900       5.117 -66.959 -49.950  1.00  0.00    -0.326 N 
HETATM    5  C1  UNK   900       2.708 -66.711 -50.301  1.00  0.00     0.189 C 
HETATM    6  C2  UNK   900       4.818 -67.305 -48.531  1.00  0.00     0.186 C 
HETATM    7  C3  UNK   900       1.667 -65.947 -51.140  1.00  0.00     0.076 C 
HETATM    8  C4  UNK   900       1.736 -65.108 -48.902  1.00  0.00     0.077 A 
HETATM    9  C5  UNK   900       1.046 -65.050 -50.114  1.00  0.00    -0.026 A 
HETATM   10  C6  UNK   900       3.684 -66.398 -48.015  1.00  0.00     0.266 C 
HETATM   11  C7  UNK   900       4.100 -66.745 -50.898  1.00  0.00     0.244 C 
HETATM   12  C9  UNK   900       1.362 -64.318 -47.828  1.00  0.00     0.093 A 
HETATM   13  C10 UNK   900       6.512 -66.837 -50.370  1.00  0.00     0.155 C 
HETATM   14  C11 UNK   900      -0.042 -64.209 -50.279  1.00  0.00     0.010 A 
HETATM   15  C12 UNK   900       0.261 -63.470 -47.985  1.00  0.00     0.039 A 
HETATM   16  C13 UNK   900      -0.438 -63.418 -49.200  1.00  0.00     0.003 A 
ENDROOT
BRANCH   6  17
HETATM   17  S1  UNK   900       4.272 -69.052 -48.368  1.00  0.00    -0.130 SA
HETATM   18  C14 UNK   900       5.889 -69.778 -48.029  1.00  0.00     0.093 C 
ENDBRANCH   6  17
BRANCH   6  19
HETATM   19  C8  UNK   900       6.032 -67.134 -47.596  1.00  0.00     0.217 C 
BRANCH  19  20
HETATM   20  O3  UNK   900       6.258 -65.751 -47.427  1.00  0.00    -0.397 OA
HETATM   21  H15 UNK   900       6.108 -65.530 -46.493  1.00  0.00     0.209 HD
ENDBRANCH  19  20
ENDBRANCH   6  19
BRANCH  12  22
HETATM   22  O4  UNK   900       2.001 -64.273 -46.634  1.00  0.00    -0.358 OA
HETATM   23  H16 UNK   900       2.856 -63.819 -46.732  1.00  0.00     0.217 HD
ENDBRANCH  12  22
TORSDOF 4
ENDMDL
MODEL 5
REMARK VINA RESULT:      -5.6     22.194     23.303
REMARK  4 active torsions:
REMARK  status: ('A' for Active; 'I' for Inactive)
REMARK    1  A    between atoms: S1_1  and  C2_9 
REMARK    2  A    between atoms: O3_4  and  C8_15 
REMARK    3  A    between atoms: O4_5  and  C9_16 
REMARK    4  A    between atoms: C2_9  and  C8_15 
ROOT
HETATM    1  O1  UNK   900      25.055 -57.554 -36.476  1.00  0.00    -0.269 OA
HETATM    2  O2  UNK   900      27.847 -60.775 -39.752  1.00  0.00    -0.271 OA
HETATM    3  N1  UNK   900      25.259 -59.499 -37.751  1.00  0.00    -0.298 N 
HETATM    4  N2  UNK   900      27.767 -58.851 -38.423  1.00  0.00    -0.326 N 
HETATM    5  C1  UNK   900      26.122 -60.633 -38.094  1.00  0.00     0.189 C 
HETATM    6  C2  UNK   900      27.259 -58.227 -37.168  1.00  0.00     0.186 C 
HETATM    7  C3  UNK   900      25.247 -61.645 -38.856  1.00  0.00     0.076 C 
HETATM    8  C4  UNK   900      23.922 -59.845 -38.005  1.00  0.00     0.077 A 
HETATM    9  C5  UNK   900      23.873 -61.095 -38.625  1.00  0.00    -0.026 A 
HETATM   10  C6  UNK   900      25.725 -58.359 -37.120  1.00  0.00     0.266 C 
HETATM   11  C7  UNK   900      27.301 -60.098 -38.880  1.00  0.00     0.244 C 
HETATM   12  C9  UNK   900      22.764 -59.132 -37.743  1.00  0.00     0.093 A 
HETATM   13  C10 UNK   900      28.782 -58.146 -39.204  1.00  0.00     0.155 C 
HETATM   14  C11 UNK   900      22.665 -61.668 -38.989  1.00  0.00     0.010 A 
HETATM   15  C12 UNK   900      21.540 -59.705 -38.101  1.00  0.00     0.039 A 
HETATM   16  C13 UNK   900      21.490 -60.965 -38.717  1.00  0.00     0.003 A 
ENDROOT
BRANCH   6  17
HETATM   17  S1  UNK   900      27.951 -59.055 -35.680  1.00  0.00    -0.130 SA
HETATM   18  C14 UNK   900      29.651 -59.216 -36.265  1.00  0.00     0.093 C 
ENDBRANCH   6  17
BRANCH   6  19
HETATM   19  C8  UNK   900      27.617 -56.732 -37.047  1.00  0.00     0.217 C 
BRANCH  19  20
HETATM   20  O3  UNK   900      26.755 -56.010 -37.899  1.00  0.00    -0.397 OA
HETATM   21  H15 UNK   900      26.137 -56.637 -38.310  1.00  0.00     0.209 HD
ENDBRANCH  19  20
ENDBRANCH   6  19
BRANCH  12  22
HETATM   22  O4  UNK   900      22.719 -57.895 -37.191  1.00  0.00    -0.358 OA
HETATM   23  H16 UNK   900      21.958 -57.401 -37.544  1.00  0.00     0.217 HD
ENDBRANCH  12  22
TORSDOF 4
ENDMDL
MODEL 6
REMARK VINA RESULT:      -5.5     50.594     51.648
REMARK  4 active torsions:
REMARK  status: ('A' for Active; 'I' for Inactive)
REMARK    1  A    between atoms: S1_1  and  C2_9 
REMARK    2  A    between atoms: O3_4  and  C8_15 
REMARK    3  A    between atoms: O4_5  and  C9_16 
REMARK    4  A    between atoms: C2_9  and  C8_15 
ROOT
HETATM    1  O1  UNK   900       8.034 -48.586 -96.032  1.00  0.00    -0.269 OA
HETATM    2  O2  UNK   900      12.904 -46.484 -96.903  1.00  0.00    -0.271 OA
HETATM    3  N1  UNK   900       9.479 -46.758 -96.181  1.00  0.00    -0.298 N 
HETATM    4  N2  UNK   900      11.508 -48.361 -96.872  1.00  0.00    -0.326 N 
HETATM    5  C1  UNK   900      10.537 -46.116 -96.967  1.00  0.00     0.189 C 
HETATM    6  C2  UNK   900      10.145 -48.901 -97.142  1.00  0.00     0.186 C 
HETATM    7  C3  UNK   900      10.700 -44.689 -96.412  1.00  0.00     0.076 C 
HETATM    8  C4  UNK   900       8.833 -45.788 -95.398  1.00  0.00     0.077 A 
HETATM    9  C5  UNK   900       9.499 -44.567 -95.525  1.00  0.00    -0.026 A 
HETATM   10  C6  UNK   900       9.108 -48.080 -96.352  1.00  0.00     0.266 C 
HETATM   11  C7  UNK   900      11.778 -46.980 -96.867  1.00  0.00     0.244 C 
HETATM   12  C9  UNK   900       7.722 -45.914 -94.581  1.00  0.00     0.093 A 
HETATM   13  C10 UNK   900      12.600 -49.295 -96.605  1.00  0.00     0.155 C 
HETATM   14  C11 UNK   900       9.065 -43.440 -94.847  1.00  0.00     0.010 A 
HETATM   15  C12 UNK   900       7.274 -44.779 -93.898  1.00  0.00     0.039 A 
HETATM   16  C13 UNK   900       7.938 -43.550 -94.031  1.00  0.00     0.003 A 
ENDROOT
BRANCH   6  17
HETATM   17  S1  UNK   900       9.722 -48.791 -98.927  1.00  0.00    -0.130 SA
HETATM   18  C14 UNK   900      10.250 -50.451 -99.401  1.00  0.00     0.093 C 
ENDBRANCH   6  17
BRANCH   6  19
HETATM   19  C8  UNK   900       9.991 -50.382 -96.743  1.00  0.00     0.217 C 
BRANCH  19  20
HETATM   20  O3  UNK   900       9.876 -50.443 -95.338  1.00  0.00    -0.397 OA
HETATM   21  H15 UNK   900       8.988 -50.768 -95.118  1.00  0.00     0.209 HD
ENDBRANCH  19  20
ENDBRANCH   6  19
BRANCH  12  22
HETATM   22  O4  UNK   900       7.044 -47.066 -94.360  1.00  0.00    -0.358 OA
HETATM   23  H16 UNK   900       7.668 -47.789 -94.178  1.00  0.00     0.217 HD
ENDBRANCH  12  22
TORSDOF 4
ENDMDL
MODEL 7
REMARK VINA RESULT:      -5.5     22.411     23.661
REMARK  4 active torsions:
REMARK  status: ('A' for Active; 'I' for Inactive)
REMARK    1  A    between atoms: S1_1  and  C2_9 
REMARK    2  A    between atoms: O3_4  and  C8_15 
REMARK    3  A    between atoms: O4_5  and  C9_16 
REMARK    4  A    between atoms: C2_9  and  C8_15 
ROOT
HETATM    1  O1  UNK   900      24.043 -57.979 -37.152  1.00  0.00    -0.269 OA
HETATM    2  O2  UNK   900      26.945 -62.500 -37.303  1.00  0.00    -0.271 OA
HETATM    3  N1  UNK   900      25.894 -59.200 -37.879  1.00  0.00    -0.298 N 
HETATM    4  N2  UNK   900      25.011 -61.384 -36.608  1.00  0.00    -0.326 N 
HETATM    5  C1  UNK   900      26.356 -60.474 -38.439  1.00  0.00     0.189 C 
HETATM    6  C2  UNK   900      23.967 -60.375 -36.949  1.00  0.00     0.186 C 
HETATM    7  C3  UNK   900      27.811 -60.257 -38.897  1.00  0.00     0.076 C 
HETATM    8  C4  UNK   900      26.827 -58.196 -38.188  1.00  0.00     0.077 A 
HETATM    9  C5  UNK   900      27.943 -58.769 -38.801  1.00  0.00    -0.026 A 
HETATM   10  C6  UNK   900      24.648 -59.038 -37.300  1.00  0.00     0.266 C 
HETATM   11  C7  UNK   900      26.180 -61.539 -37.376  1.00  0.00     0.244 C 
HETATM   12  C9  UNK   900      26.761 -56.833 -37.951  1.00  0.00     0.093 A 
HETATM   13  C10 UNK   900      24.814 -62.239 -35.439  1.00  0.00     0.155 C 
HETATM   14  C11 UNK   900      29.017 -57.991 -39.202  1.00  0.00     0.010 A 
HETATM   15  C12 UNK   900      27.839 -56.041 -38.359  1.00  0.00     0.039 A 
HETATM   16  C13 UNK   900      28.958 -56.615 -38.982  1.00  0.00     0.003 A 
ENDROOT
BRANCH   6  17
HETATM   17  S1  UNK   900      22.969 -60.906 -38.397  1.00  0.00    -0.130 SA
HETATM   18  C14 UNK   900      21.401 -60.169 -37.891  1.00  0.00     0.093 C 
ENDBRANCH   6  17
BRANCH   6  19
HETATM   19  C8  UNK   900      22.973 -60.120 -35.798  1.00  0.00     0.217 C 
BRANCH  19  20
HETATM   20  O3  UNK   900      23.616 -59.308 -34.841  1.00  0.00    -0.397 OA
HETATM   21  H15 UNK   900      24.155 -58.650 -35.311  1.00  0.00     0.209 HD
ENDBRANCH  19  20
ENDBRANCH   6  19
BRANCH  12  22
HETATM   22  O4  UNK   900      25.743 -56.199 -37.321  1.00  0.00    -0.358 OA
HETATM   23  H16 UNK   900      25.195 -55.725 -37.970  1.00  0.00     0.217 HD
ENDBRANCH  12  22
TORSDOF 4
ENDMDL
MODEL 8
REMARK VINA RESULT:      -5.2      2.570      5.689
REMARK  4 active torsions:
REMARK  status: ('A' for Active; 'I' for Inactive)
REMARK    1  A    between atoms: S1_1  and  C2_9 
REMARK    2  A    between atoms: O3_4  and  C8_15 
REMARK    3  A    between atoms: O4_5  and  C9_16 
REMARK    4  A    between atoms: C2_9  and  C8_15 
ROOT
HETATM    1  O1  UNK   900       4.805 -70.247 -50.208  1.00  0.00    -0.269 OA
HETATM    2  O2  UNK   900       8.091 -66.137 -49.108  1.00  0.00    -0.271 OA
HETATM    3  N1  UNK   900       5.546 -68.064 -50.572  1.00  0.00    -0.298 N 
HETATM    4  N2  UNK   900       7.479 -68.366 -48.745  1.00  0.00    -0.326 N 
HETATM    5  C1  UNK   900       6.717 -67.202 -50.759  1.00  0.00     0.189 C 
HETATM    6  C2  UNK   900       6.966 -69.629 -49.350  1.00  0.00     0.186 C 
HETATM    7  C3  UNK   900       6.194 -65.843 -51.261  1.00  0.00     0.076 C 
HETATM    8  C4  UNK   900       4.423 -67.447 -51.148  1.00  0.00     0.077 A 
HETATM    9  C5  UNK   900       4.766 -66.165 -51.581  1.00  0.00    -0.026 A 
HETATM   10  C6  UNK   900       5.627 -69.346 -50.058  1.00  0.00     0.266 C 
HETATM   11  C7  UNK   900       7.465 -67.144 -49.443  1.00  0.00     0.244 C 
HETATM   12  C9  UNK   900       3.134 -67.931 -51.297  1.00  0.00     0.093 A 
HETATM   13  C10 UNK   900       8.014 -68.398 -47.385  1.00  0.00     0.155 C 
HETATM   14  C11 UNK   900       3.832 -65.338 -52.183  1.00  0.00     0.010 A 
HETATM   15  C12 UNK   900       2.187 -67.105 -51.909  1.00  0.00     0.039 A 
HETATM   16  C13 UNK   900       2.533 -65.819 -52.352  1.00  0.00     0.003 A 
ENDROOT
BRANCH   6  17
HETATM   17  S1  UNK   900       8.140 -70.301 -50.594  1.00  0.00    -0.130 SA
HETATM   18  C14 UNK   900       9.628 -70.246 -49.574  1.00  0.00     0.093 C 
ENDBRANCH   6  17
BRANCH   6  19
HETATM   19  C8  UNK   900       6.734 -70.746 -48.313  1.00  0.00     0.217 C 
BRANCH  19  20
HETATM   20  O3  UNK   900       6.676 -71.974 -49.005  1.00  0.00    -0.397 OA
HETATM   21  H15 UNK   900       7.281 -72.598 -48.571  1.00  0.00     0.209 HD
ENDBRANCH  19  20
ENDBRANCH   6  19
BRANCH  12  22
HETATM   22  O4  UNK   900       2.701 -69.140 -50.864  1.00  0.00    -0.358 OA
HETATM   23  H16 UNK   900       3.213 -69.417 -50.085  1.00  0.00     0.217 HD
ENDBRANCH  12  22
TORSDOF 4
ENDMDL
MODEL 9
REMARK VINA RESULT:      -5.1      3.521      5.381
REMARK  4 active torsions:
REMARK  status: ('A' for Active; 'I' for Inactive)
REMARK    1  A    between atoms: S1_1  and  C2_9 
REMARK    2  A    between atoms: O3_4  and  C8_15 
REMARK    3  A    between atoms: O4_5  and  C9_16 
REMARK    4  A    between atoms: C2_9  and  C8_15 
ROOT
HETATM    1  O1  UNK   900       5.048 -66.275 -47.577  1.00  0.00    -0.269 OA
HETATM    2  O2  UNK   900       2.857 -69.277 -51.461  1.00  0.00    -0.271 OA
HETATM    3  N1  UNK   900       5.023 -67.097 -49.761  1.00  0.00    -0.298 N 
HETATM    4  N2  UNK   900       2.748 -68.425 -49.285  1.00  0.00    -0.326 N 
HETATM    5  C1  UNK   900       4.197 -67.358 -50.944  1.00  0.00     0.189 C 
HETATM    6  C2  UNK   900       3.009 -67.260 -48.392  1.00  0.00     0.186 C 
HETATM    7  C3  UNK   900       5.164 -67.668 -52.103  1.00  0.00     0.076 C 
HETATM    8  C4  UNK   900       6.365 -66.972 -50.155  1.00  0.00     0.077 A 
HETATM    9  C5  UNK   900       6.483 -67.272 -51.514  1.00  0.00    -0.026 A 
HETATM   10  C6  UNK   900       4.490 -66.853 -48.508  1.00  0.00     0.266 C 
HETATM   11  C7  UNK   900       3.239 -68.481 -50.603  1.00  0.00     0.244 C 
HETATM   12  C9  UNK   900       7.475 -66.630 -49.400  1.00  0.00     0.093 A 
HETATM   13  C10 UNK   900       1.956 -69.544 -48.777  1.00  0.00     0.155 C 
HETATM   14  C11 UNK   900       7.711 -67.229 -52.154  1.00  0.00     0.010 A 
HETATM   15  C12 UNK   900       8.717 -66.579 -50.040  1.00  0.00     0.039 A 
HETATM   16  C13 UNK   900       8.835 -66.873 -51.407  1.00  0.00     0.003 A 
ENDROOT
BRANCH   6  17
HETATM   17  S1  UNK   900       1.979 -65.812 -48.859  1.00  0.00    -0.130 SA
HETATM   18  C14 UNK   900       1.758 -65.131 -47.202  1.00  0.00     0.093 C 
ENDBRANCH   6  17
BRANCH   6  19
HETATM   19  C8  UNK   900       2.708 -67.556 -46.908  1.00  0.00     0.217 C 
BRANCH  19  20
HETATM   20  O3  UNK   900       3.765 -68.338 -46.398  1.00  0.00    -0.397 OA
HETATM   21  H15 UNK   900       4.406 -67.745 -45.972  1.00  0.00     0.209 HD
ENDBRANCH  19  20
ENDBRANCH   6  19
BRANCH  12  22
HETATM   22  O4  UNK   900       7.463 -66.371 -48.070  1.00  0.00    -0.358 OA
HETATM   23  H16 UNK   900       8.133 -66.915 -47.620  1.00  0.00     0.217 HD
ENDBRANCH  12  22
TORSDOF 4
ENDMDL
