MODEL 1
REMARK VINA RESULT:      -6.5      0.000      0.000
REMARK  7 active torsions:
REMARK  status: ('A' for Active; 'I' for Inactive)
REMARK    1  A    between atoms: O1_1  and  C1_6 
REMARK    2  A    between atoms: O2_2  and  C13_18 
REMARK    3  A    between atoms: N1_4  and  C2_7 
REMARK    4  A    between atoms: N2_5  and  C5_10 
REMARK    5  A    between atoms: N2_5  and  C6_11 
REMARK    6  A    between atoms: C1_6  and  C2_7 
REMARK    7  A    between atoms: C7_12  and  C13_18 
ROOT
HETATM    1  N2  UNK   900      31.383 -49.113 -59.694  1.00  0.00    -0.344 N 
HETATM    2  H10 UNK   900      30.614 -49.396 -59.092  1.00  0.00     0.167 HD
ENDROOT
BRANCH   1   3
HETATM    3  C5  UNK   900      32.391 -50.042 -59.905  1.00  0.00     0.095 C 
HETATM    4  N1  UNK   900      32.584 -51.094 -59.190  1.00  0.00    -0.274 NA
HETATM    5  C8  UNK   900      33.275 -49.729 -61.109  1.00  0.00     0.091 C 
BRANCH   4   6
HETATM    6  C2  UNK   900      33.681 -52.009 -59.524  1.00  0.00     0.187 C 
BRANCH   6   7
HETATM    7  C1  UNK   900      33.448 -53.382 -58.879  1.00  0.00     0.068 C 
HETATM    8  C3  UNK   900      34.542 -54.390 -59.239  1.00  0.00     0.047 C 
HETATM    9  C4  UNK   900      32.080 -53.926 -59.298  1.00  0.00     0.047 C 
BRANCH   7  10
HETATM   10  O1  UNK   900      33.417 -53.229 -57.459  1.00  0.00    -0.389 OA
HETATM   11  H9  UNK   900      33.165 -54.083 -57.068  1.00  0.00     0.210 HD
ENDBRANCH   7  10
ENDBRANCH   6   7
ENDBRANCH   4   6
ENDBRANCH   1   3
BRANCH   1  12
HETATM   12  C6  UNK   900      31.303 -47.761 -60.095  1.00  0.00     0.050 A 
HETATM   13  C7  UNK   900      30.525 -47.385 -61.190  1.00  0.00     0.064 A 
HETATM   14  C10 UNK   900      30.458 -46.044 -61.570  1.00  0.00     0.020 A 
HETATM   15  C12 UNK   900      31.169 -45.080 -60.856  1.00  0.00     0.001 A 
HETATM   16  C11 UNK   900      31.947 -45.457 -59.760  1.00  0.00     0.002 A 
HETATM   17  C9  UNK   900      32.013 -46.798 -59.380  1.00  0.00     0.030 A 
BRANCH  13  18
HETATM   18  C13 UNK   900      29.769 -48.368 -61.958  1.00  0.00     0.178 C 
HETATM   19  O3  UNK   900      29.165 -49.331 -61.481  1.00  0.00    -0.646 OA
BRANCH  18  20
HETATM   20  O2  UNK   900      29.795 -48.112 -63.294  1.00  0.00    -0.773 OA
HETATM   21  H18 UNK   900      29.121 -47.448 -63.551  1.00  0.00     0.167 HD
ENDBRANCH  18  20
ENDBRANCH  13  18
ENDBRANCH   1  12
TORSDOF 7
ENDMDL
MODEL 2
REMARK VINA RESULT:      -6.2      5.071      6.963
REMARK  7 active torsions:
REMARK  status: ('A' for Active; 'I' for Inactive)
REMARK    1  A    between atoms: O1_1  and  C1_6 
REMARK    2  A    between atoms: O2_2  and  C13_18 
REMARK    3  A    between atoms: N1_4  and  C2_7 
REMARK    4  A    between atoms: N2_5  and  C5_10 
REMARK    5  A    between atoms: N2_5  and  C6_11 
REMARK    6  A    between atoms: C1_6  and  C2_7 
REMARK    7  A    between atoms: C7_12  and  C13_18 
ROOT
HETATM    1  N2  UNK   900      30.718 -45.900 -65.648  1.00  0.00    -0.344 N 
HETATM    2  H10 UNK   900      30.937 -44.916 -65.781  1.00  0.00     0.167 HD
ENDROOT
BRANCH   1   3
HETATM    3  C5  UNK   900      31.175 -46.494 -64.480  1.00  0.00     0.095 C 
HETATM    4  N1  UNK   900      31.583 -47.711 -64.385  1.00  0.00    -0.274 NA
HETATM    5  C8  UNK   900      31.183 -45.558 -63.275  1.00  0.00     0.091 C 
BRANCH   4   6
HETATM    6  C2  UNK   900      32.055 -48.219 -63.092  1.00  0.00     0.187 C 
BRANCH   6   7
HETATM    7  C1  UNK   900      31.362 -49.546 -62.754  1.00  0.00     0.068 C 
HETATM    8  C3  UNK   900      29.901 -49.353 -62.339  1.00  0.00     0.047 C 
HETATM    9  C4  UNK   900      32.129 -50.261 -61.640  1.00  0.00     0.047 C 
BRANCH   7  10
HETATM   10  O1  UNK   900      31.403 -50.398 -63.900  1.00  0.00    -0.389 OA
HETATM   11  H9  UNK   900      30.491 -50.530 -64.211  1.00  0.00     0.210 HD
ENDBRANCH   7  10
ENDBRANCH   6   7
ENDBRANCH   4   6
ENDBRANCH   1   3
BRANCH   1  12
HETATM   12  C6  UNK   900      30.080 -46.481 -66.766  1.00  0.00     0.050 A 
HETATM   13  C7  UNK   900      30.742 -46.593 -67.989  1.00  0.00     0.064 A 
HETATM   14  C10 UNK   900      30.094 -47.171 -69.081  1.00  0.00     0.020 A 
HETATM   15  C12 UNK   900      28.786 -47.636 -68.951  1.00  0.00     0.001 A 
HETATM   16  C11 UNK   900      28.124 -47.522 -67.727  1.00  0.00     0.002 A 
HETATM   17  C9  UNK   900      28.772 -46.945 -66.635  1.00  0.00     0.030 A 
BRANCH  13  18
HETATM   18  C13 UNK   900      32.110 -46.118 -68.158  1.00  0.00     0.178 C 
HETATM   19  O3  UNK   900      33.076 -46.473 -67.478  1.00  0.00    -0.646 OA
BRANCH  18  20
HETATM   20  O2  UNK   900      32.223 -45.217 -69.170  1.00  0.00    -0.773 OA
HETATM   21  H18 UNK   900      31.426 -44.650 -69.245  1.00  0.00     0.167 HD
ENDBRANCH  18  20
ENDBRANCH  13  18
ENDBRANCH   1  12
TORSDOF 7
ENDMDL
MODEL 3
REMARK VINA RESULT:      -6.1     10.370     12.747
REMARK  7 active torsions:
REMARK  status: ('A' for Active; 'I' for Inactive)
REMARK    1  A    between atoms: O1_1  and  C1_6 
REMARK    2  A    between atoms: O2_2  and  C13_18 
REMARK    3  A    between atoms: N1_4  and  C2_7 
REMARK    4  A    between atoms: N2_5  and  C5_10 
REMARK    5  A    between atoms: N2_5  and  C6_11 
REMARK    6  A    between atoms: C1_6  and  C2_7 
REMARK    7  A    between atoms: C7_12  and  C13_18 
ROOT
HETATM    1  N2  UNK   900      34.461 -40.382 -56.067  1.00  0.00    -0.344 N 
HETATM    2  H10 UNK   900      33.795 -41.072 -56.405  1.00  0.00     0.167 HD
ENDROOT
BRANCH   1   3
HETATM    3  C5  UNK   900      34.041 -39.059 -56.049  1.00  0.00     0.095 C 
HETATM    4  N1  UNK   900      34.498 -38.131 -56.815  1.00  0.00    -0.274 NA
HETATM    5  C8  UNK   900      32.939 -38.777 -55.032  1.00  0.00     0.091 C 
BRANCH   4   6
HETATM    6  C2  UNK   900      33.962 -36.771 -56.706  1.00  0.00     0.187 C 
BRANCH   6   7
HETATM    7  C1  UNK   900      33.263 -36.365 -58.010  1.00  0.00     0.068 C 
HETATM    8  C3  UNK   900      33.398 -34.869 -58.306  1.00  0.00     0.047 C 
HETATM    9  C4  UNK   900      31.783 -36.751 -57.946  1.00  0.00     0.047 C 
BRANCH   7  10
HETATM   10  O1  UNK   900      33.837 -37.099 -59.093  1.00  0.00    -0.389 OA
HETATM   11  H9  UNK   900      33.153 -37.688 -59.456  1.00  0.00     0.210 HD
ENDBRANCH   7  10
ENDBRANCH   6   7
ENDBRANCH   4   6
ENDBRANCH   1   3
BRANCH   1  12
HETATM   12  C6  UNK   900      35.735 -40.928 -55.796  1.00  0.00     0.050 A 
HETATM   13  C7  UNK   900      36.655 -41.142 -56.822  1.00  0.00     0.064 A 
HETATM   14  C10 UNK   900      37.908 -41.682 -56.532  1.00  0.00     0.020 A 
HETATM   15  C12 UNK   900      38.241 -42.009 -55.218  1.00  0.00     0.001 A 
HETATM   16  C11 UNK   900      37.320 -41.795 -54.192  1.00  0.00     0.002 A 
HETATM   17  C9  UNK   900      36.066 -41.254 -54.481  1.00  0.00     0.030 A 
BRANCH  13  18
HETATM   18  C13 UNK   900      36.339 -40.811 -58.206  1.00  0.00     0.178 C 
HETATM   19  O3  UNK   900      36.846 -39.891 -58.852  1.00  0.00    -0.646 OA
BRANCH  18  20
HETATM   20  O2  UNK   900      35.399 -41.641 -58.735  1.00  0.00    -0.773 OA
HETATM   21  H18 UNK   900      34.523 -41.204 -58.802  1.00  0.00     0.167 HD
ENDBRANCH  18  20
ENDBRANCH  13  18
ENDBRANCH   1  12
TORSDOF 7
ENDMDL
MODEL 4
REMARK VINA RESULT:      -6.0      4.183      7.607
REMARK  7 active torsions:
REMARK  status: ('A' for Active; 'I' for Inactive)
REMARK    1  A    between atoms: O1_1  and  C1_6 
REMARK    2  A    between atoms: O2_2  and  C13_18 
REMARK    3  A    between atoms: N1_4  and  C2_7 
REMARK    4  A    between atoms: N2_5  and  C5_10 
REMARK    5  A    between atoms: N2_5  and  C6_11 
REMARK    6  A    between atoms: C1_6  and  C2_7 
REMARK    7  A    between atoms: C7_12  and  C13_18 
ROOT
HETATM    1  N2  UNK   900      29.764 -47.906 -64.224  1.00  0.00    -0.344 N 
HETATM    2  H10 UNK   900      29.500 -48.887 -64.257  1.00  0.00     0.167 HD
ENDROOT
BRANCH   1   3
HETATM    3  C5  UNK   900      29.651 -47.184 -65.402  1.00  0.00     0.095 C 
HETATM    4  N1  UNK   900      30.633 -46.885 -66.179  1.00  0.00    -0.274 NA
HETATM    5  C8  UNK   900      28.221 -46.773 -65.739  1.00  0.00     0.091 C 
BRANCH   4   6
HETATM    6  C2  UNK   900      30.381 -46.125 -67.408  1.00  0.00     0.187 C 
BRANCH   6   7
HETATM    7  C1  UNK   900      31.268 -44.873 -67.454  1.00  0.00     0.068 C 
HETATM    8  C3  UNK   900      32.656 -45.117 -66.857  1.00  0.00     0.047 C 
HETATM    9  C4  UNK   900      30.579 -43.723 -66.716  1.00  0.00     0.047 C 
BRANCH   7  10
HETATM   10  O1  UNK   900      31.421 -44.461 -68.814  1.00  0.00    -0.389 OA
HETATM   11  H9  UNK   900      30.535 -44.349 -69.198  1.00  0.00     0.210 HD
ENDBRANCH   7  10
ENDBRANCH   6   7
ENDBRANCH   4   6
ENDBRANCH   1   3
BRANCH   1  12
HETATM   12  C6  UNK   900      30.309 -47.522 -62.978  1.00  0.00     0.050 A 
HETATM   13  C7  UNK   900      31.119 -48.395 -62.253  1.00  0.00     0.064 A 
HETATM   14  C10 UNK   900      31.649 -47.996 -61.025  1.00  0.00     0.020 A 
HETATM   15  C12 UNK   900      31.368 -46.726 -60.523  1.00  0.00     0.001 A 
HETATM   16  C11 UNK   900      30.556 -45.853 -61.250  1.00  0.00     0.002 A 
HETATM   17  C9  UNK   900      30.027 -46.252 -62.478  1.00  0.00     0.030 A 
BRANCH  13  18
HETATM   18  C13 UNK   900      31.434 -49.729 -62.749  1.00  0.00     0.178 C 
HETATM   19  O3  UNK   900      31.579 -50.031 -63.936  1.00  0.00    -0.646 OA
BRANCH  18  20
HETATM   20  O2  UNK   900      31.556 -50.639 -61.745  1.00  0.00    -0.773 OA
HETATM   21  H18 UNK   900      31.940 -50.240 -60.936  1.00  0.00     0.167 HD
ENDBRANCH  18  20
ENDBRANCH  13  18
ENDBRANCH   1  12
TORSDOF 7
ENDMDL
MODEL 5
REMARK VINA RESULT:      -5.9      3.590      7.243
REMARK  7 active torsions:
REMARK  status: ('A' for Active; 'I' for Inactive)
REMARK    1  A    between atoms: O1_1  and  C1_6 
REMARK    2  A    between atoms: O2_2  and  C13_18 
REMARK    3  A    between atoms: N1_4  and  C2_7 
REMARK    4  A    between atoms: N2_5  and  C5_10 
REMARK    5  A    between atoms: N2_5  and  C6_11 
REMARK    6  A    between atoms: C1_6  and  C2_7 
REMARK    7  A    between atoms: C7_12  and  C13_18 
ROOT
HETATM    1  N2  UNK   900      30.402 -46.284 -61.330  1.00  0.00    -0.344 N 
HETATM    2  H10 UNK   900      30.013 -45.627 -60.659  1.00  0.00     0.167 HD
ENDROOT
BRANCH   1   3
HETATM    3  C5  UNK   900      30.749 -45.779 -62.575  1.00  0.00     0.095 C 
HETATM    4  N1  UNK   900      30.110 -46.012 -63.668  1.00  0.00    -0.274 NA
HETATM    5  C8  UNK   900      31.977 -44.873 -62.552  1.00  0.00     0.091 C 
BRANCH   4   6
HETATM    6  C2  UNK   900      30.572 -45.408 -64.922  1.00  0.00     0.187 C 
BRANCH   6   7
HETATM    7  C1  UNK   900      29.499 -45.547 -66.010  1.00  0.00     0.068 C 
HETATM    8  C3  UNK   900      28.562 -46.731 -65.759  1.00  0.00     0.047 C 
HETATM    9  C4  UNK   900      30.166 -45.693 -67.379  1.00  0.00     0.047 C 
BRANCH   7  10
HETATM   10  O1  UNK   900      28.721 -44.350 -66.052  1.00  0.00    -0.389 OA
HETATM   11  H9  UNK   900      28.325 -44.215 -65.174  1.00  0.00     0.210 HD
ENDBRANCH   7  10
ENDBRANCH   6   7
ENDBRANCH   4   6
ENDBRANCH   1   3
BRANCH   1  12
HETATM   12  C6  UNK   900      30.393 -47.618 -60.868  1.00  0.00     0.050 A 
HETATM   13  C7  UNK   900      31.181 -48.005 -59.784  1.00  0.00     0.064 A 
HETATM   14  C10 UNK   900      31.158 -49.328 -59.341  1.00  0.00     0.020 A 
HETATM   15  C12 UNK   900      30.348 -50.264 -59.983  1.00  0.00     0.001 A 
HETATM   16  C11 UNK   900      29.560 -49.877 -61.068  1.00  0.00     0.002 A 
HETATM   17  C9  UNK   900      29.583 -48.554 -61.510  1.00  0.00     0.030 A 
BRANCH  13  18
HETATM   18  C13 UNK   900      32.038 -47.051 -59.090  1.00  0.00     0.178 C 
HETATM   19  O3  UNK   900      32.446 -45.986 -59.560  1.00  0.00    -0.646 OA
BRANCH  18  20
HETATM   20  O2  UNK   900      32.356 -47.461 -57.832  1.00  0.00    -0.773 OA
HETATM   21  H18 UNK   900      31.562 -47.732 -57.325  1.00  0.00     0.167 HD
ENDBRANCH  18  20
ENDBRANCH  13  18
ENDBRANCH   1  12
TORSDOF 7
ENDMDL
MODEL 6
REMARK VINA RESULT:      -5.8     10.868     13.163
REMARK  7 active torsions:
REMARK  status: ('A' for Active; 'I' for Inactive)
REMARK    1  A    between atoms: O1_1  and  C1_6 
REMARK    2  A    between atoms: O2_2  and  C13_18 
REMARK    3  A    between atoms: N1_4  and  C2_7 
REMARK    4  A    between atoms: N2_5  and  C5_10 
REMARK    5  A    between atoms: N2_5  and  C6_11 
REMARK    6  A    between atoms: C1_6  and  C2_7 
REMARK    7  A    between atoms: C7_12  and  C13_18 
ROOT
HETATM    1  N2  UNK   900      35.960 -36.795 -57.703  1.00  0.00    -0.344 N 
HETATM    2  H10 UNK   900      36.254 -37.211 -58.583  1.00  0.00     0.167 HD
ENDROOT
BRANCH   1   3
HETATM    3  C5  UNK   900      36.117 -37.565 -56.560  1.00  0.00     0.095 C 
HETATM    4  N1  UNK   900      36.534 -38.782 -56.544  1.00  0.00    -0.274 NA
HETATM    5  C8  UNK   900      35.772 -36.828 -55.269  1.00  0.00     0.091 C 
BRANCH   4   6
HETATM    6  C2  UNK   900      36.669 -39.487 -55.265  1.00  0.00     0.187 C 
BRANCH   6   7
HETATM    7  C1  UNK   900      35.809 -40.758 -55.260  1.00  0.00     0.068 C 
HETATM    8  C3  UNK   900      36.535 -41.954 -54.639  1.00  0.00     0.047 C 
HETATM    9  C4  UNK   900      35.376 -41.096 -56.688  1.00  0.00     0.047 C 
BRANCH   7  10
HETATM   10  O1  UNK   900      34.617 -40.509 -54.512  1.00  0.00    -0.389 OA
HETATM   11  H9  UNK   900      34.046 -39.923 -55.039  1.00  0.00     0.210 HD
ENDBRANCH   7  10
ENDBRANCH   6   7
ENDBRANCH   4   6
ENDBRANCH   1   3
BRANCH   1  12
HETATM   12  C6  UNK   900      35.336 -35.538 -57.866  1.00  0.00     0.050 A 
HETATM   13  C7  UNK   900      33.962 -35.445 -58.087  1.00  0.00     0.064 A 
HETATM   14  C10 UNK   900      33.365 -34.194 -58.245  1.00  0.00     0.020 A 
HETATM   15  C12 UNK   900      34.141 -33.037 -58.183  1.00  0.00     0.001 A 
HETATM   16  C11 UNK   900      35.516 -33.131 -57.962  1.00  0.00     0.002 A 
HETATM   17  C9  UNK   900      36.113 -34.382 -57.804  1.00  0.00     0.030 A 
BRANCH  13  18
HETATM   18  C13 UNK   900      33.123 -36.635 -58.157  1.00  0.00     0.178 C 
HETATM   19  O3  UNK   900      32.352 -37.016 -57.272  1.00  0.00    -0.646 OA
BRANCH  18  20
HETATM   20  O2  UNK   900      33.275 -37.308 -59.329  1.00  0.00    -0.773 OA
HETATM   21  H18 UNK   900      33.982 -36.917 -59.885  1.00  0.00     0.167 HD
ENDBRANCH  18  20
ENDBRANCH  13  18
ENDBRANCH   1  12
TORSDOF 7
ENDMDL
MODEL 7
REMARK VINA RESULT:      -5.8      3.486      7.309
REMARK  7 active torsions:
REMARK  status: ('A' for Active; 'I' for Inactive)
REMARK    1  A    between atoms: O1_1  and  C1_6 
REMARK    2  A    between atoms: O2_2  and  C13_18 
REMARK    3  A    between atoms: N1_4  and  C2_7 
REMARK    4  A    between atoms: N2_5  and  C5_10 
REMARK    5  A    between atoms: N2_5  and  C6_11 
REMARK    6  A    between atoms: C1_6  and  C2_7 
REMARK    7  A    between atoms: C7_12  and  C13_18 
ROOT
HETATM    1  N2  UNK   900      31.530 -49.125 -63.361  1.00  0.00    -0.344 N 
HETATM    2  H10 UNK   900      31.821 -49.592 -64.215  1.00  0.00     0.167 HD
ENDROOT
BRANCH   1   3
HETATM    3  C5  UNK   900      30.813 -47.945 -63.502  1.00  0.00     0.095 C 
HETATM    4  N1  UNK   900      29.929 -47.725 -64.411  1.00  0.00    -0.274 NA
HETATM    5  C8  UNK   900      31.141 -46.895 -62.445  1.00  0.00     0.091 C 
BRANCH   4   6
HETATM    6  C2  UNK   900      29.229 -46.437 -64.447  1.00  0.00     0.187 C 
BRANCH   6   7
HETATM    7  C1  UNK   900      28.880 -46.058 -65.893  1.00  0.00     0.068 C 
HETATM    8  C3  UNK   900      27.656 -46.812 -66.417  1.00  0.00     0.047 C 
HETATM    9  C4  UNK   900      30.083 -46.322 -66.802  1.00  0.00     0.047 C 
BRANCH   7  10
HETATM   10  O1  UNK   900      28.613 -44.655 -65.954  1.00  0.00    -0.389 OA
HETATM   11  H9  UNK   900      27.696 -44.509 -65.666  1.00  0.00     0.210 HD
ENDBRANCH   7  10
ENDBRANCH   6   7
ENDBRANCH   4   6
ENDBRANCH   1   3
BRANCH   1  12
HETATM   12  C6  UNK   900      32.034 -49.740 -62.194  1.00  0.00     0.050 A 
HETATM   13  C7  UNK   900      33.387 -49.651 -61.866  1.00  0.00     0.064 A 
HETATM   14  C10 UNK   900      33.865 -50.265 -60.708  1.00  0.00     0.020 A 
HETATM   15  C12 UNK   900      32.992 -50.968 -59.879  1.00  0.00     0.001 A 
HETATM   16  C11 UNK   900      31.638 -51.058 -60.208  1.00  0.00     0.002 A 
HETATM   17  C9  UNK   900      31.160 -50.443 -61.366  1.00  0.00     0.030 A 
BRANCH  13  18
HETATM   18  C13 UNK   900      34.326 -48.922 -62.710  1.00  0.00     0.178 C 
HETATM   19  O3  UNK   900      34.540 -49.154 -63.902  1.00  0.00    -0.646 OA
BRANCH  18  20
HETATM   20  O2  UNK   900      34.966 -47.930 -62.034  1.00  0.00    -0.773 OA
HETATM   21  H18 UNK   900      35.458 -47.335 -62.639  1.00  0.00     0.167 HD
ENDBRANCH  18  20
ENDBRANCH  13  18
ENDBRANCH   1  12
TORSDOF 7
ENDMDL
MODEL 8
REMARK VINA RESULT:      -5.8     11.400     12.847
REMARK  7 active torsions:
REMARK  status: ('A' for Active; 'I' for Inactive)
REMARK    1  A    between atoms: O1_1  and  C1_6 
REMARK    2  A    between atoms: O2_2  and  C13_18 
REMARK    3  A    between atoms: N1_4  and  C2_7 
REMARK    4  A    between atoms: N2_5  and  C5_10 
REMARK    5  A    between atoms: N2_5  and  C6_11 
REMARK    6  A    between atoms: C1_6  and  C2_7 
REMARK    7  A    between atoms: C7_12  and  C13_18 
ROOT
HETATM    1  N2  UNK   900      35.907 -37.171 -55.252  1.00  0.00    -0.344 N 
HETATM    2  H10 UNK   900      35.598 -36.953 -54.309  1.00  0.00     0.167 HD
ENDROOT
BRANCH   1   3
HETATM    3  C5  UNK   900      36.935 -38.093 -55.381  1.00  0.00     0.095 C 
HETATM    4  N1  UNK   900      36.797 -39.290 -55.832  1.00  0.00    -0.274 NA
HETATM    5  C8  UNK   900      38.299 -37.558 -54.955  1.00  0.00     0.091 C 
BRANCH   4   6
HETATM    6  C2  UNK   900      37.968 -40.168 -55.931  1.00  0.00     0.187 C 
BRANCH   6   7
HETATM    7  C1  UNK   900      37.723 -41.475 -55.165  1.00  0.00     0.068 C 
HETATM    8  C3  UNK   900      37.665 -41.263 -53.650  1.00  0.00     0.047 C 
HETATM    9  C4  UNK   900      38.818 -42.488 -55.506  1.00  0.00     0.047 C 
BRANCH   7  10
HETATM   10  O1  UNK   900      36.484 -42.041 -55.595  1.00  0.00    -0.389 OA
HETATM   11  H9  UNK   900      36.667 -42.647 -56.333  1.00  0.00     0.210 HD
ENDBRANCH   7  10
ENDBRANCH   6   7
ENDBRANCH   4   6
ENDBRANCH   1   3
BRANCH   1  12
HETATM   12  C6  UNK   900      35.278 -36.376 -56.237  1.00  0.00     0.050 A 
HETATM   13  C7  UNK   900      33.973 -36.646 -56.647  1.00  0.00     0.064 A 
HETATM   14  C10 UNK   900      33.369 -35.849 -57.620  1.00  0.00     0.020 A 
HETATM   15  C12 UNK   900      34.071 -34.783 -58.184  1.00  0.00     0.001 A 
HETATM   16  C11 UNK   900      35.378 -34.515 -57.773  1.00  0.00     0.002 A 
HETATM   17  C9  UNK   900      35.981 -35.312 -56.799  1.00  0.00     0.030 A 
BRANCH  13  18
HETATM   18  C13 UNK   900      33.211 -37.750 -56.077  1.00  0.00     0.178 C 
HETATM   19  O3  UNK   900      32.170 -37.636 -55.426  1.00  0.00    -0.646 OA
BRANCH  18  20
HETATM   20  O2  UNK   900      33.777 -38.959 -56.341  1.00  0.00    -0.773 OA
HETATM   21  H18 UNK   900      34.714 -38.994 -56.052  1.00  0.00     0.167 HD
ENDBRANCH  18  20
ENDBRANCH  13  18
ENDBRANCH   1  12
TORSDOF 7
ENDMDL
MODEL 9
REMARK VINA RESULT:      -5.6     30.489     31.778
REMARK  7 active torsions:
REMARK  status: ('A' for Active; 'I' for Inactive)
REMARK    1  A    between atoms: O1_1  and  C1_6 
REMARK    2  A    between atoms: O2_2  and  C13_18 
REMARK    3  A    between atoms: N1_4  and  C2_7 
REMARK    4  A    between atoms: N2_5  and  C5_10 
REMARK    5  A    between atoms: N2_5  and  C6_11 
REMARK    6  A    between atoms: C1_6  and  C2_7 
REMARK    7  A    between atoms: C7_12  and  C13_18 
ROOT
HETATM    1  N2  UNK   900      26.683 -22.642 -74.121  1.00  0.00    -0.344 N 
HETATM    2  H10 UNK   900      27.490 -23.256 -74.051  1.00  0.00     0.167 HD
ENDROOT
BRANCH   1   3
HETATM    3  C5  UNK   900      26.855 -21.327 -73.712  1.00  0.00     0.095 C 
HETATM    4  N1  UNK   900      27.225 -20.966 -72.534  1.00  0.00    -0.274 NA
HETATM    5  C8  UNK   900      26.587 -20.301 -74.809  1.00  0.00     0.091 C 
BRANCH   4   6
HETATM    6  C2  UNK   900      27.382 -19.540 -72.227  1.00  0.00     0.187 C 
BRANCH   6   7
HETATM    7  C1  UNK   900      26.327 -19.091 -71.208  1.00  0.00     0.068 C 
HETATM    8  C3  UNK   900      25.157 -18.354 -71.863  1.00  0.00     0.047 C 
HETATM    9  C4  UNK   900      26.977 -18.199 -70.148  1.00  0.00     0.047 C 
BRANCH   7  10
HETATM   10  O1  UNK   900      25.819 -20.241 -70.528  1.00  0.00    -0.389 OA
HETATM   11  H9  UNK   900      26.452 -20.969 -70.650  1.00  0.00     0.210 HD
ENDBRANCH   7  10
ENDBRANCH   6   7
ENDBRANCH   4   6
ENDBRANCH   1   3
BRANCH   1  12
HETATM   12  C6  UNK   900      25.509 -23.316 -74.523  1.00  0.00     0.050 A 
HETATM   13  C7  UNK   900      25.437 -23.950 -75.763  1.00  0.00     0.064 A 
HETATM   14  C10 UNK   900      24.268 -24.612 -76.140  1.00  0.00     0.020 A 
HETATM   15  C12 UNK   900      23.171 -24.639 -75.279  1.00  0.00     0.001 A 
HETATM   16  C11 UNK   900      23.244 -24.003 -74.038  1.00  0.00     0.002 A 
HETATM   17  C9  UNK   900      24.413 -23.342 -73.661  1.00  0.00     0.030 A 
BRANCH  13  18
HETATM   18  C13 UNK   900      26.565 -23.942 -76.686  1.00  0.00     0.178 C 
HETATM   19  O3  UNK   900      27.240 -22.953 -76.977  1.00  0.00    -0.646 OA
BRANCH  18  20
HETATM   20  O2  UNK   900      26.811 -25.173 -77.213  1.00  0.00    -0.773 OA
HETATM   21  H18 UNK   900      27.455 -25.679 -76.673  1.00  0.00     0.167 HD
ENDBRANCH  18  20
ENDBRANCH  13  18
ENDBRANCH   1  12
TORSDOF 7
ENDMDL
