MODEL 1
REMARK VINA RESULT:      -5.5      0.000      0.000
REMARK  7 active torsions:
REMARK  status: ('A' for Active; 'I' for Inactive)
REMARK    1  A    between atoms: O1_1  and  C5_8 
REMARK    2  A    between atoms: O2_2  and  C13_16 
REMARK    3  A    between atoms: C1_4  and  C2_5 
REMARK    4  A    between atoms: C2_5  and  C6_9 
REMARK    5  A    between atoms: C6_9  and  C10_13 
REMARK    6  A    between atoms: C10_13  and  C12_15 
REMARK    7  A    between atoms: C12_15  and  C13_16 
ROOT
HETATM    1  C2  UNK   900       9.137 -69.015 -49.333  1.00  0.00    -0.011 C 
HETATM    2  C9  UNK   900       8.092 -69.369 -48.274  1.00  0.00     0.010 C 
ENDROOT
BRANCH   1   3
HETATM    3  C1  UNK   900       8.872 -67.607 -49.867  1.00  0.00     0.011 C 
HETATM    4  C3  UNK   900       8.658 -67.652 -51.390  1.00  0.00     0.012 C 
HETATM    5  C4  UNK   900       8.063 -66.343 -51.903  1.00  0.00     0.042 C 
HETATM    6  C5  UNK   900       6.712 -66.021 -51.236  1.00  0.00     0.072 C 
HETATM    7  C8  UNK   900       6.750 -66.266 -49.749  1.00  0.00     0.007 C 
HETATM    8  C11 UNK   900       5.568 -66.819 -51.870  1.00  0.00     0.050 C 
HETATM    9  C7  UNK   900       7.720 -66.963 -49.138  1.00  0.00    -0.023 C 
BRANCH   6  10
HETATM   10  O1  UNK   900       6.457 -64.631 -51.468  1.00  0.00    -0.386 OA
HETATM   11  H19 UNK   900       5.841 -64.561 -52.217  1.00  0.00     0.211 HD
ENDBRANCH   6  10
ENDBRANCH   1   3
BRANCH   1  12
HETATM   12  C6  UNK   900      10.579 -69.100 -48.790  1.00  0.00     0.012 C 
BRANCH  12  13
HETATM   13  C10 UNK   900      10.764 -70.042 -47.599  1.00  0.00     0.082 C 
BRANCH  13  14
HETATM   14  C12 UNK   900      12.026 -70.889 -47.686  1.00  0.00     0.160 C 
HETATM   15  O3  UNK   900      13.046 -70.461 -48.232  1.00  0.00    -0.295 OA
BRANCH  14  16
HETATM   16  C13 UNK   900      11.975 -72.310 -47.108  1.00  0.00     0.111 C 
HETATM   17  C14 UNK   900      12.844 -72.407 -45.858  1.00  0.00     0.053 C 
HETATM   18  C15 UNK   900      10.544 -72.761 -46.835  1.00  0.00     0.053 C 
BRANCH  16  19
HETATM   19  O2  UNK   900      12.544 -73.187 -48.079  1.00  0.00    -0.383 OA
HETATM   20  H26 UNK   900      11.842 -73.776 -48.405  1.00  0.00     0.211 HD
ENDBRANCH  16  19
ENDBRANCH  14  16
ENDBRANCH  13  14
ENDBRANCH  12  13
ENDBRANCH   1  12
TORSDOF 7
ENDMDL
MODEL 2
REMARK VINA RESULT:      -5.4     54.325     56.280
REMARK  7 active torsions:
REMARK  status: ('A' for Active; 'I' for Inactive)
REMARK    1  A    between atoms: O1_1  and  C5_8 
REMARK    2  A    between atoms: O2_2  and  C13_16 
REMARK    3  A    between atoms: C1_4  and  C2_5 
REMARK    4  A    between atoms: C2_5  and  C6_9 
REMARK    5  A    between atoms: C6_9  and  C10_13 
REMARK    6  A    between atoms: C10_13  and  C12_15 
REMARK    7  A    between atoms: C12_15  and  C13_16 
ROOT
HETATM    1  C2  UNK   900      22.655 -22.870 -75.494  1.00  0.00    -0.011 C 
HETATM    2  C9  UNK   900      23.131 -24.260 -75.918  1.00  0.00     0.010 C 
ENDROOT
BRANCH   1   3
HETATM    3  C1  UNK   900      23.216 -22.533 -74.113  1.00  0.00     0.011 C 
HETATM    4  C3  UNK   900      24.483 -23.363 -73.841  1.00  0.00     0.012 C 
HETATM    5  C4  UNK   900      25.253 -22.819 -72.640  1.00  0.00     0.042 C 
HETATM    6  C5  UNK   900      25.671 -21.349 -72.838  1.00  0.00     0.072 C 
HETATM    7  C8  UNK   900      24.552 -20.522 -73.417  1.00  0.00     0.007 C 
HETATM    8  C11 UNK   900      26.918 -21.234 -73.722  1.00  0.00     0.050 C 
HETATM    9  C7  UNK   900      23.453 -21.051 -73.975  1.00  0.00    -0.023 C 
BRANCH   6  10
HETATM   10  O1  UNK   900      26.003 -20.835 -71.544  1.00  0.00    -0.386 OA
HETATM   11  H19 UNK   900      26.914 -20.495 -71.581  1.00  0.00     0.211 HD
ENDBRANCH   6  10
ENDBRANCH   1   3
BRANCH   1  12
HETATM   12  C6  UNK   900      23.064 -21.774 -76.501  1.00  0.00     0.012 C 
BRANCH  12  13
HETATM   13  C10 UNK   900      24.184 -22.171 -77.464  1.00  0.00     0.082 C 
BRANCH  13  14
HETATM   14  C12 UNK   900      25.484 -21.411 -77.230  1.00  0.00     0.160 C 
HETATM   15  O3  UNK   900      25.477 -20.243 -76.835  1.00  0.00    -0.295 OA
BRANCH  14  16
HETATM   16  C13 UNK   900      26.801 -22.135 -77.540  1.00  0.00     0.111 C 
HETATM   17  C14 UNK   900      27.988 -21.217 -77.266  1.00  0.00     0.053 C 
HETATM   18  C15 UNK   900      26.920 -23.451 -76.779  1.00  0.00     0.053 C 
BRANCH  16  19
HETATM   19  O2  UNK   900      26.811 -22.422 -78.937  1.00  0.00    -0.383 OA
HETATM   20  H26 UNK   900      26.257 -23.207 -79.090  1.00  0.00     0.211 HD
ENDBRANCH  16  19
ENDBRANCH  14  16
ENDBRANCH  13  14
ENDBRANCH  12  13
ENDBRANCH   1  12
TORSDOF 7
ENDMDL
MODEL 3
REMARK VINA RESULT:      -5.0     29.505     32.399
REMARK  7 active torsions:
REMARK  status: ('A' for Active; 'I' for Inactive)
REMARK    1  A    between atoms: O1_1  and  C5_8 
REMARK    2  A    between atoms: O2_2  and  C13_16 
REMARK    3  A    between atoms: C1_4  and  C2_5 
REMARK    4  A    between atoms: C2_5  and  C6_9 
REMARK    5  A    between atoms: C6_9  and  C10_13 
REMARK    6  A    between atoms: C10_13  and  C12_15 
REMARK    7  A    between atoms: C12_15  and  C13_16 
ROOT
HETATM    1  C2  UNK   900       6.015 -47.386 -72.080  1.00  0.00    -0.011 C 
HETATM    2  C9  UNK   900       5.936 -46.041 -71.358  1.00  0.00     0.010 C 
ENDROOT
BRANCH   1   3
HETATM    3  C1  UNK   900       6.348 -47.159 -73.555  1.00  0.00     0.011 C 
HETATM    4  C3  UNK   900       5.279 -47.817 -74.445  1.00  0.00     0.012 C 
HETATM    5  C4  UNK   900       5.386 -47.332 -75.888  1.00  0.00     0.042 C 
HETATM    6  C5  UNK   900       5.230 -45.803 -75.997  1.00  0.00     0.072 C 
HETATM    7  C8  UNK   900       6.014 -45.083 -74.930  1.00  0.00     0.007 C 
HETATM    8  C11 UNK   900       3.758 -45.383 -75.938  1.00  0.00     0.050 C 
HETATM    9  C7  UNK   900       6.522 -45.691 -73.848  1.00  0.00    -0.023 C 
BRANCH   6  10
HETATM   10  O1  UNK   900       5.742 -45.425 -77.280  1.00  0.00    -0.386 OA
HETATM   11  H19 UNK   900       5.712 -46.207 -77.857  1.00  0.00     0.211 HD
ENDBRANCH   6  10
ENDBRANCH   1   3
BRANCH   1  12
HETATM   12  C6  UNK   900       7.060 -48.332 -71.452  1.00  0.00     0.012 C 
BRANCH  12  13
HETATM   13  C10 UNK   900       8.244 -48.674 -72.358  1.00  0.00     0.082 C 
BRANCH  13  14
HETATM   14  C12 UNK   900       8.491 -50.171 -72.495  1.00  0.00     0.160 C 
HETATM   15  O3  UNK   900       7.575 -50.984 -72.349  1.00  0.00    -0.295 OA
BRANCH  14  16
HETATM   16  C13 UNK   900       9.925 -50.636 -72.780  1.00  0.00     0.111 C 
HETATM   17  C14 UNK   900      10.869 -50.149 -71.685  1.00  0.00     0.053 C 
HETATM   18  C15 UNK   900      10.006 -52.148 -72.961  1.00  0.00     0.053 C 
BRANCH  16  19
HETATM   19  O2  UNK   900      10.342 -50.016 -73.994  1.00  0.00    -0.383 OA
HETATM   20  H26 UNK   900       9.631 -50.123 -74.650  1.00  0.00     0.211 HD
ENDBRANCH  16  19
ENDBRANCH  14  16
ENDBRANCH  13  14
ENDBRANCH  12  13
ENDBRANCH   1  12
TORSDOF 7
ENDMDL
MODEL 4
REMARK VINA RESULT:      -5.0     59.009     59.931
REMARK  7 active torsions:
REMARK  status: ('A' for Active; 'I' for Inactive)
REMARK    1  A    between atoms: O1_1  and  C5_8 
REMARK    2  A    between atoms: O2_2  and  C13_16 
REMARK    3  A    between atoms: C1_4  and  C2_5 
REMARK    4  A    between atoms: C2_5  and  C6_9 
REMARK    5  A    between atoms: C6_9  and  C10_13 
REMARK    6  A    between atoms: C10_13  and  C12_15 
REMARK    7  A    between atoms: C12_15  and  C13_16 
ROOT
HETATM    1  C2  UNK   900      21.753 -24.059 -87.791  1.00  0.00    -0.011 C 
HETATM    2  C9  UNK   900      21.694 -22.596 -88.231  1.00  0.00     0.010 C 
ENDROOT
BRANCH   1   3
HETATM    3  C1  UNK   900      21.451 -24.160 -86.296  1.00  0.00     0.011 C 
HETATM    4  C3  UNK   900      22.430 -23.279 -85.499  1.00  0.00     0.012 C 
HETATM    5  C4  UNK   900      21.955 -23.086 -84.061  1.00  0.00     0.042 C 
HETATM    6  C5  UNK   900      20.559 -22.438 -83.995  1.00  0.00     0.072 C 
HETATM    7  C8  UNK   900      19.612 -23.047 -84.996  1.00  0.00     0.007 C 
HETATM    8  C11 UNK   900      20.634 -20.921 -84.200  1.00  0.00     0.050 C 
HETATM    9  C7  UNK   900      20.009 -23.824 -86.014  1.00  0.00    -0.023 C 
BRANCH   6  10
HETATM   10  O1  UNK   900      20.054 -22.676 -82.677  1.00  0.00    -0.386 OA
HETATM   11  H19 UNK   900      19.465 -21.938 -82.443  1.00  0.00     0.211 HD
ENDBRANCH   6  10
ENDBRANCH   1   3
BRANCH   1  12
HETATM   12  C6  UNK   900      20.772 -24.952 -88.579  1.00  0.00     0.012 C 
BRANCH  12  13
HETATM   13  C10 UNK   900      21.199 -26.415 -88.712  1.00  0.00     0.082 C 
BRANCH  13  14
HETATM   14  C12 UNK   900      21.682 -26.781 -90.110  1.00  0.00     0.160 C 
HETATM   15  O3  UNK   900      22.709 -26.286 -90.580  1.00  0.00    -0.295 OA
BRANCH  14  16
HETATM   16  C13 UNK   900      20.825 -27.754 -90.931  1.00  0.00     0.111 C 
HETATM   17  C14 UNK   900      20.405 -27.110 -92.249  1.00  0.00     0.053 C 
HETATM   18  C15 UNK   900      21.534 -29.085 -91.155  1.00  0.00     0.053 C 
BRANCH  16  19
HETATM   19  O2  UNK   900      19.631 -28.001 -90.190  1.00  0.00    -0.383 OA
HETATM   20  H26 UNK   900      19.354 -28.918 -90.358  1.00  0.00     0.211 HD
ENDBRANCH  16  19
ENDBRANCH  14  16
ENDBRANCH  13  14
ENDBRANCH  12  13
ENDBRANCH   1  12
TORSDOF 7
ENDMDL
MODEL 5
REMARK VINA RESULT:      -5.0     50.985     54.765
REMARK  7 active torsions:
REMARK  status: ('A' for Active; 'I' for Inactive)
REMARK    1  A    between atoms: O1_1  and  C5_8 
REMARK    2  A    between atoms: O2_2  and  C13_16 
REMARK    3  A    between atoms: C1_4  and  C2_5 
REMARK    4  A    between atoms: C2_5  and  C6_9 
REMARK    5  A    between atoms: C6_9  and  C10_13 
REMARK    6  A    between atoms: C10_13  and  C12_15 
REMARK    7  A    between atoms: C12_15  and  C13_16 
ROOT
HETATM    1  C2  UNK   900      11.991 -24.754 -81.439  1.00  0.00    -0.011 C 
HETATM    2  C9  UNK   900      12.468 -24.852 -82.888  1.00  0.00     0.010 C 
ENDROOT
BRANCH   1   3
HETATM    3  C1  UNK   900      11.993 -26.144 -80.802  1.00  0.00     0.011 C 
HETATM    4  C3  UNK   900      11.228 -26.115 -79.467  1.00  0.00     0.012 C 
HETATM    5  C4  UNK   900      10.918 -27.527 -78.976  1.00  0.00     0.042 C 
HETATM    6  C5  UNK   900      10.081 -28.323 -79.995  1.00  0.00     0.072 C 
HETATM    7  C8  UNK   900      10.589 -28.139 -81.402  1.00  0.00     0.007 C 
HETATM    8  C11 UNK   900       8.597 -27.944 -79.921  1.00  0.00     0.050 C 
HETATM    9  C7  UNK   900      11.451 -27.175 -81.758  1.00  0.00    -0.023 C 
BRANCH   6  10
HETATM   10  O1  UNK   900      10.198 -29.704 -79.639  1.00  0.00    -0.386 OA
HETATM   11  H19 UNK   900      10.147 -29.769 -78.669  1.00  0.00     0.211 HD
ENDBRANCH   6  10
ENDBRANCH   1   3
BRANCH   1  12
HETATM   12  C6  UNK   900      12.859 -23.797 -80.595  1.00  0.00     0.012 C 
BRANCH  12  13
HETATM   13  C10 UNK   900      12.407 -22.335 -80.613  1.00  0.00     0.082 C 
BRANCH  13  14
HETATM   14  C12 UNK   900      10.897 -22.166 -80.515  1.00  0.00     0.160 C 
HETATM   15  O3  UNK   900      10.284 -22.483 -79.492  1.00  0.00    -0.295 OA
BRANCH  14  16
HETATM   16  C13 UNK   900      10.156 -21.626 -81.745  1.00  0.00     0.111 C 
HETATM   17  C14 UNK   900      11.149 -21.252 -82.841  1.00  0.00     0.053 C 
HETATM   18  C15 UNK   900       9.103 -22.607 -82.250  1.00  0.00     0.053 C 
BRANCH  16  19
HETATM   19  O2  UNK   900       9.497 -20.423 -81.353  1.00  0.00    -0.383 OA
HETATM   20  H26 UNK   900       9.642 -19.757 -82.047  1.00  0.00     0.211 HD
ENDBRANCH  16  19
ENDBRANCH  14  16
ENDBRANCH  13  14
ENDBRANCH  12  13
ENDBRANCH   1  12
TORSDOF 7
ENDMDL
MODEL 6
REMARK VINA RESULT:      -4.9     19.833     21.905
REMARK  7 active torsions:
REMARK  status: ('A' for Active; 'I' for Inactive)
REMARK    1  A    between atoms: O1_1  and  C5_8 
REMARK    2  A    between atoms: O2_2  and  C13_16 
REMARK    3  A    between atoms: C1_4  and  C2_5 
REMARK    4  A    between atoms: C2_5  and  C6_9 
REMARK    5  A    between atoms: C6_9  and  C10_13 
REMARK    6  A    between atoms: C10_13  and  C12_15 
REMARK    7  A    between atoms: C12_15  and  C13_16 
ROOT
HETATM    1  C2  UNK   900      25.120 -59.504 -37.711  1.00  0.00    -0.011 C 
HETATM    2  C9  UNK   900      25.132 -60.361 -36.445  1.00  0.00     0.010 C 
ENDROOT
BRANCH   1   3
HETATM    3  C1  UNK   900      23.774 -59.653 -38.420  1.00  0.00     0.011 C 
HETATM    4  C3  UNK   900      23.447 -61.142 -38.627  1.00  0.00     0.012 C 
HETATM    5  C4  UNK   900      21.984 -61.339 -39.015  1.00  0.00     0.042 C 
HETATM    6  C5  UNK   900      21.022 -60.777 -37.951  1.00  0.00     0.072 C 
HETATM    7  C8  UNK   900      21.466 -59.424 -37.455  1.00  0.00     0.007 C 
HETATM    8  C11 UNK   900      20.865 -61.742 -36.770  1.00  0.00     0.050 C 
HETATM    9  C7  UNK   900      22.688 -58.919 -37.675  1.00  0.00    -0.023 C 
BRANCH   6  10
HETATM   10  O1  UNK   900      19.743 -60.641 -38.578  1.00  0.00    -0.386 OA
HETATM   11  H19 UNK   900      19.276 -59.902 -38.152  1.00  0.00     0.211 HD
ENDBRANCH   6  10
ENDBRANCH   1   3
BRANCH   1  12
HETATM   12  C6  UNK   900      25.388 -58.013 -37.416  1.00  0.00     0.012 C 
BRANCH  12  13
HETATM   13  C10 UNK   900      26.510 -57.385 -38.243  1.00  0.00     0.082 C 
BRANCH  13  14
HETATM   14  C12 UNK   900      27.904 -57.717 -37.725  1.00  0.00     0.160 C 
HETATM   15  O3  UNK   900      28.154 -57.713 -36.517  1.00  0.00    -0.295 OA
BRANCH  14  16
HETATM   16  C13 UNK   900      28.998 -58.016 -38.759  1.00  0.00     0.111 C 
HETATM   17  C14 UNK   900      29.784 -56.749 -39.083  1.00  0.00     0.053 C 
HETATM   18  C15 UNK   900      29.915 -59.146 -38.304  1.00  0.00     0.053 C 
BRANCH  16  19
HETATM   19  O2  UNK   900      28.349 -58.422 -39.962  1.00  0.00    -0.383 OA
HETATM   20  H26 UNK   900      28.287 -59.393 -39.961  1.00  0.00     0.211 HD
ENDBRANCH  16  19
ENDBRANCH  14  16
ENDBRANCH  13  14
ENDBRANCH  12  13
ENDBRANCH   1  12
TORSDOF 7
ENDMDL
MODEL 7
REMARK VINA RESULT:      -4.9      2.296      3.568
REMARK  7 active torsions:
REMARK  status: ('A' for Active; 'I' for Inactive)
REMARK    1  A    between atoms: O1_1  and  C5_8 
REMARK    2  A    between atoms: O2_2  and  C13_16 
REMARK    3  A    between atoms: C1_4  and  C2_5 
REMARK    4  A    between atoms: C2_5  and  C6_9 
REMARK    5  A    between atoms: C6_9  and  C10_13 
REMARK    6  A    between atoms: C10_13  and  C12_15 
REMARK    7  A    between atoms: C12_15  and  C13_16 
ROOT
HETATM    1  C2  UNK   900       6.728 -69.851 -51.210  1.00  0.00    -0.011 C 
HETATM    2  C9  UNK   900       5.828 -70.750 -50.361  1.00  0.00     0.010 C 
ENDROOT
BRANCH   1   3
HETATM    3  C1  UNK   900       5.868 -68.916 -52.060  1.00  0.00     0.011 C 
HETATM    4  C3  UNK   900       4.381 -69.100 -51.707  1.00  0.00     0.012 C 
HETATM    5  C4  UNK   900       3.534 -67.965 -52.276  1.00  0.00     0.042 C 
HETATM    6  C5  UNK   900       3.986 -66.588 -51.756  1.00  0.00     0.072 C 
HETATM    7  C8  UNK   900       5.487 -66.450 -51.771  1.00  0.00     0.007 C 
HETATM    8  C11 UNK   900       3.450 -66.316 -50.346  1.00  0.00     0.050 C 
HETATM    9  C7  UNK   900       6.324 -67.487 -51.919  1.00  0.00    -0.023 C 
BRANCH   6  10
HETATM   10  O1  UNK   900       3.424 -65.608 -52.635  1.00  0.00    -0.386 OA
HETATM   11  H19 UNK   900       3.132 -64.853 -52.095  1.00  0.00     0.211 HD
ENDBRANCH   6  10
ENDBRANCH   1   3
BRANCH   1  12
HETATM   12  C6  UNK   900       7.706 -69.019 -50.354  1.00  0.00     0.012 C 
BRANCH  12  13
HETATM   13  C10 UNK   900       9.179 -69.406 -50.501  1.00  0.00     0.082 C 
BRANCH  13  14
HETATM   14  C12 UNK   900       9.643 -70.428 -49.471  1.00  0.00     0.160 C 
HETATM   15  O3  UNK   900       9.185 -71.573 -49.457  1.00  0.00    -0.295 OA
BRANCH  14  16
HETATM   16  C13 UNK   900      10.670 -69.973 -48.426  1.00  0.00     0.111 C 
HETATM   17  C14 UNK   900      10.211 -70.365 -47.024  1.00  0.00     0.053 C 
HETATM   18  C15 UNK   900      12.066 -70.508 -48.730  1.00  0.00     0.053 C 
BRANCH  16  19
HETATM   19  O2  UNK   900      10.718 -68.549 -48.465  1.00  0.00    -0.383 OA
HETATM   20  H26 UNK   900      11.485 -68.256 -47.943  1.00  0.00     0.211 HD
ENDBRANCH  16  19
ENDBRANCH  14  16
ENDBRANCH  13  14
ENDBRANCH  12  13
ENDBRANCH   1  12
TORSDOF 7
ENDMDL
MODEL 8
REMARK VINA RESULT:      -4.8     19.798     21.996
REMARK  7 active torsions:
REMARK  status: ('A' for Active; 'I' for Inactive)
REMARK    1  A    between atoms: O1_1  and  C5_8 
REMARK    2  A    between atoms: O2_2  and  C13_16 
REMARK    3  A    between atoms: C1_4  and  C2_5 
REMARK    4  A    between atoms: C2_5  and  C6_9 
REMARK    5  A    between atoms: C6_9  and  C10_13 
REMARK    6  A    between atoms: C10_13  and  C12_15 
REMARK    7  A    between atoms: C12_15  and  C13_16 
ROOT
HETATM    1  C2  UNK   900      11.730 -62.902 -69.536  1.00  0.00    -0.011 C 
HETATM    2  C9  UNK   900      10.370 -63.206 -70.165  1.00  0.00     0.010 C 
ENDROOT
BRANCH   1   3
HETATM    3  C1  UNK   900      12.172 -61.490 -69.924  1.00  0.00     0.011 C 
HETATM    4  C3  UNK   900      12.439 -61.418 -71.437  1.00  0.00     0.012 C 
HETATM    5  C4  UNK   900      12.548 -59.970 -71.910  1.00  0.00     0.042 C 
HETATM    6  C5  UNK   900      11.271 -59.164 -71.607  1.00  0.00     0.072 C 
HETATM    7  C8  UNK   900      10.756 -59.436 -70.216  1.00  0.00     0.007 C 
HETATM    8  C11 UNK   900      10.172 -59.445 -72.637  1.00  0.00     0.050 C 
HETATM    9  C7  UNK   900      11.167 -60.466 -69.462  1.00  0.00    -0.023 C 
BRANCH   6  10
HETATM   10  O1  UNK   900      11.622 -57.780 -71.706  1.00  0.00    -0.386 OA
HETATM   11  H19 UNK   900      11.155 -57.301 -70.999  1.00  0.00     0.211 HD
ENDBRANCH   6  10
ENDBRANCH   1   3
BRANCH   1  12
HETATM   12  C6  UNK   900      11.712 -63.035 -67.999  1.00  0.00     0.012 C 
BRANCH  12  13
HETATM   13  C10 UNK   900      13.074 -62.865 -67.323  1.00  0.00     0.082 C 
BRANCH  13  14
HETATM   14  C12 UNK   900      14.045 -64.000 -67.621  1.00  0.00     0.160 C 
HETATM   15  O3  UNK   900      13.792 -65.161 -67.290  1.00  0.00    -0.295 OA
BRANCH  14  16
HETATM   16  C13 UNK   900      15.369 -63.645 -68.311  1.00  0.00     0.111 C 
HETATM   17  C14 UNK   900      15.687 -64.661 -69.404  1.00  0.00     0.053 C 
HETATM   18  C15 UNK   900      15.363 -62.219 -68.852  1.00  0.00     0.053 C 
BRANCH  16  19
HETATM   19  O2  UNK   900      16.402 -63.749 -67.333  1.00  0.00    -0.383 OA
HETATM   20  H26 UNK   900      17.046 -64.410 -67.641  1.00  0.00     0.211 HD
ENDBRANCH  16  19
ENDBRANCH  14  16
ENDBRANCH  13  14
ENDBRANCH  12  13
ENDBRANCH   1  12
TORSDOF 7
ENDMDL
MODEL 9
REMARK VINA RESULT:      -4.8     28.476     32.055
REMARK  7 active torsions:
REMARK  status: ('A' for Active; 'I' for Inactive)
REMARK    1  A    between atoms: O1_1  and  C5_8 
REMARK    2  A    between atoms: O2_2  and  C13_16 
REMARK    3  A    between atoms: C1_4  and  C2_5 
REMARK    4  A    between atoms: C2_5  and  C6_9 
REMARK    5  A    between atoms: C6_9  and  C10_13 
REMARK    6  A    between atoms: C10_13  and  C12_15 
REMARK    7  A    between atoms: C12_15  and  C13_16 
ROOT
HETATM    1  C2  UNK   900       6.492 -41.365 -63.055  1.00  0.00    -0.011 C 
HETATM    2  C9  UNK   900       7.489 -40.998 -61.956  1.00  0.00     0.010 C 
ENDROOT
BRANCH   1   3
HETATM    3  C1  UNK   900       5.519 -42.423 -62.534  1.00  0.00     0.011 C 
HETATM    4  C3  UNK   900       4.124 -42.204 -63.145  1.00  0.00     0.012 C 
HETATM    5  C4  UNK   900       3.226 -43.419 -62.923  1.00  0.00     0.042 C 
HETATM    6  C5  UNK   900       3.825 -44.700 -63.534  1.00  0.00     0.072 C 
HETATM    7  C8  UNK   900       5.298 -44.824 -63.240  1.00  0.00     0.007 C 
HETATM    8  C11 UNK   900       3.585 -44.768 -65.046  1.00  0.00     0.050 C 
HETATM    9  C7  UNK   900       6.050 -43.812 -62.783  1.00  0.00    -0.023 C 
BRANCH   6  10
HETATM   10  O1  UNK   900       3.141 -45.805 -62.932  1.00  0.00    -0.386 OA
HETATM   11  H19 UNK   900       2.961 -46.461 -63.628  1.00  0.00     0.211 HD
ENDBRANCH   6  10
ENDBRANCH   1   3
BRANCH   1  12
HETATM   12  C6  UNK   900       5.702 -40.142 -63.566  1.00  0.00     0.012 C 
BRANCH  12  13
HETATM   13  C10 UNK   900       6.554 -38.910 -63.876  1.00  0.00     0.082 C 
BRANCH  13  14
HETATM   14  C12 UNK   900       7.420 -39.068 -65.119  1.00  0.00     0.160 C 
HETATM   15  O3  UNK   900       7.088 -39.822 -66.036  1.00  0.00    -0.295 OA
BRANCH  14  16
HETATM   16  C13 UNK   900       8.740 -38.288 -65.174  1.00  0.00     0.111 C 
HETATM   17  C14 UNK   900       8.513 -36.898 -65.759  1.00  0.00     0.053 C 
HETATM   18  C15 UNK   900       9.417 -38.220 -63.809  1.00  0.00     0.053 C 
BRANCH  16  19
HETATM   19  O2  UNK   900       9.607 -38.980 -66.071  1.00  0.00    -0.383 OA
HETATM   20  H26 UNK   900       9.858 -38.368 -66.784  1.00  0.00     0.211 HD
ENDBRANCH  16  19
ENDBRANCH  14  16
ENDBRANCH  13  14
ENDBRANCH  12  13
ENDBRANCH   1  12
TORSDOF 7
ENDMDL
