MODEL 1
REMARK VINA RESULT:      -7.6      0.000      0.000
REMARK  8 active torsions:
REMARK  status: ('A' for Active; 'I' for Inactive)
REMARK    1  A    between atoms: S1_1  and  C15_25 
REMARK    2  A    between atoms: O2_3  and  C5_15 
REMARK    3  A    between atoms: O2_3  and  C7_17 
REMARK    4  A    between atoms: O3_4  and  C1_11 
REMARK    5  A    between atoms: O4_5  and  C2_12 
REMARK    6  A    between atoms: O5_6  and  C3_13 
REMARK    7  A    between atoms: O6_7  and  C19_29 
REMARK    8  A    between atoms: C16_26  and  C19_29 
ROOT
HETATM    1  N1  UNK   900      34.019 -49.161 -61.652  1.00  0.00    -0.240 NA
HETATM    2  N2  UNK   900      32.580 -50.799 -59.969  1.00  0.00    -0.243 NA
HETATM    3  C7  UNK   900      32.131 -47.736 -61.882  1.00  0.00     0.103 A 
HETATM    4  C8  UNK   900      32.743 -48.869 -61.350  1.00  0.00     0.119 A 
HETATM    5  C9  UNK   900      30.810 -47.418 -61.579  1.00  0.00     0.039 A 
HETATM    6  C10 UNK   900      32.013 -49.701 -60.495  1.00  0.00     0.089 A 
HETATM    7  C11 UNK   900      34.586 -50.258 -61.126  1.00  0.00     0.104 A 
HETATM    8  C12 UNK   900      30.085 -48.243 -60.732  1.00  0.00     0.005 A 
HETATM    9  C13 UNK   900      30.691 -49.378 -60.196  1.00  0.00     0.034 A 
HETATM   10  C14 UNK   900      33.855 -51.090 -60.272  1.00  0.00     0.104 A 
HETATM   11  C15 UNK   900      35.908 -50.582 -61.424  1.00  0.00     0.031 A 
HETATM   12  C16 UNK   900      34.467 -52.223 -59.739  1.00  0.00     0.068 A 
HETATM   13  C17 UNK   900      36.514 -51.717 -60.889  1.00  0.00     0.022 A 
HETATM   14  C18 UNK   900      35.790 -52.541 -60.041  1.00  0.00     0.022 A 
ENDROOT
BRANCH   3  15
HETATM   15  O2  UNK   900      32.829 -46.908 -62.719  1.00  0.00    -0.315 OA
BRANCH  15  16
HETATM   16  C5  UNK   900      33.011 -45.562 -62.279  1.00  0.00     0.298 C 
HETATM   17  O1  UNK   900      32.672 -44.663 -63.335  1.00  0.00    -0.351 OA
HETATM   18  C4  UNK   900      32.829 -43.285 -62.977  1.00  0.00     0.152 C 
HETATM   19  C2  UNK   900      34.296 -42.983 -62.622  1.00  0.00     0.178 C 
HETATM   20  C6  UNK   900      32.335 -42.451 -64.153  1.00  0.00     0.042 C 
HETATM   21  C1  UNK   900      34.811 -43.935 -61.540  1.00  0.00     0.183 C 
HETATM   22  C3  UNK   900      34.481 -45.390 -61.893  1.00  0.00     0.205 C 
BRANCH  19  23
HETATM   23  O4  UNK   900      35.102 -43.130 -63.790  1.00  0.00    -0.390 OA
HETATM   24  H10 UNK   900      34.508 -43.117 -64.559  1.00  0.00     0.210 HD
ENDBRANCH  19  23
BRANCH  21  25
HETATM   25  O3  UNK   900      34.239 -43.580 -60.281  1.00  0.00    -0.390 OA
HETATM   26  H9  UNK   900      33.272 -43.604 -60.381  1.00  0.00     0.210 HD
ENDBRANCH  21  25
BRANCH  22  27
HETATM   27  O5  UNK   900      34.787 -46.241 -60.793  1.00  0.00    -0.388 OA
HETATM   28  H11 UNK   900      35.423 -46.906 -61.106  1.00  0.00     0.210 HD
ENDBRANCH  22  27
ENDBRANCH  15  16
ENDBRANCH   3  15
BRANCH  11  29
HETATM   29  S1  UNK   900      36.897 -49.554 -62.516  1.00  0.00    -0.132 SA
HETATM   30  C20 UNK   900      37.215 -50.695 -63.887  1.00  0.00     0.095 C 
ENDBRANCH  11  29
BRANCH  12  31
HETATM   31  C19 UNK   900      33.735 -53.113 -58.845  1.00  0.00     0.178 C 
HETATM   32  O7  UNK   900      33.353 -54.251 -59.129  1.00  0.00    -0.646 OA
BRANCH  31  33
HETATM   33  O6  UNK   900      33.508 -52.551 -57.628  1.00  0.00    -0.773 OA
HETATM   34  H20 UNK   900      33.184 -53.209 -56.976  1.00  0.00     0.167 HD
ENDBRANCH  31  33
ENDBRANCH  12  31
TORSDOF 8
ENDMDL
MODEL 2
REMARK VINA RESULT:      -7.4      1.575      2.256
REMARK  8 active torsions:
REMARK  status: ('A' for Active; 'I' for Inactive)
REMARK    1  A    between atoms: S1_1  and  C15_25 
REMARK    2  A    between atoms: O2_3  and  C5_15 
REMARK    3  A    between atoms: O2_3  and  C7_17 
REMARK    4  A    between atoms: O3_4  and  C1_11 
REMARK    5  A    between atoms: O4_5  and  C2_12 
REMARK    6  A    between atoms: O5_6  and  C3_13 
REMARK    7  A    between atoms: O6_7  and  C19_29 
REMARK    8  A    between atoms: C16_26  and  C19_29 
ROOT
HETATM    1  N1  UNK   900      34.090 -49.249 -61.140  1.00  0.00    -0.240 NA
HETATM    2  N2  UNK   900      32.571 -50.939 -59.584  1.00  0.00    -0.243 NA
HETATM    3  C7  UNK   900      32.332 -47.651 -61.123  1.00  0.00     0.103 A 
HETATM    4  C8  UNK   900      32.858 -48.885 -60.748  1.00  0.00     0.119 A 
HETATM    5  C9  UNK   900      31.057 -47.257 -60.727  1.00  0.00     0.039 A 
HETATM    6  C10 UNK   900      32.087 -49.744 -59.959  1.00  0.00     0.089 A 
HETATM    7  C11 UNK   900      34.574 -50.444 -60.765  1.00  0.00     0.104 A 
HETATM    8  C12 UNK   900      30.291 -48.108 -59.944  1.00  0.00     0.005 A 
HETATM    9  C13 UNK   900      30.811 -49.344 -59.565  1.00  0.00     0.034 A 
HETATM   10  C14 UNK   900      33.803 -51.302 -59.975  1.00  0.00     0.104 A 
HETATM   11  C15 UNK   900      35.849 -50.844 -61.158  1.00  0.00     0.031 A 
HETATM   12  C16 UNK   900      34.328 -52.537 -59.600  1.00  0.00     0.068 A 
HETATM   13  C17 UNK   900      36.370 -52.080 -60.780  1.00  0.00     0.022 A 
HETATM   14  C18 UNK   900      35.605 -52.931 -59.996  1.00  0.00     0.022 A 
ENDROOT
BRANCH   3  15
HETATM   15  O2  UNK   900      33.071 -46.795 -61.895  1.00  0.00    -0.315 OA
BRANCH  15  16
HETATM   16  C5  UNK   900      32.346 -45.967 -62.804  1.00  0.00     0.298 C 
HETATM   17  O1  UNK   900      31.649 -46.784 -63.745  1.00  0.00    -0.351 OA
HETATM   18  C4  UNK   900      30.894 -46.029 -64.699  1.00  0.00     0.152 C 
HETATM   19  C2  UNK   900      31.823 -45.128 -65.531  1.00  0.00     0.178 C 
HETATM   20  C6  UNK   900      30.128 -47.025 -65.562  1.00  0.00     0.042 C 
HETATM   21  C1  UNK   900      32.687 -44.242 -64.631  1.00  0.00     0.183 C 
HETATM   22  C3  UNK   900      33.353 -45.072 -63.528  1.00  0.00     0.205 C 
BRANCH  19  23
HETATM   23  O4  UNK   900      32.674 -45.943 -66.334  1.00  0.00    -0.390 OA
HETATM   24  H10 UNK   900      32.554 -45.671 -67.259  1.00  0.00     0.210 HD
ENDBRANCH  19  23
BRANCH  21  25
HETATM   25  O3  UNK   900      31.882 -43.207 -64.066  1.00  0.00    -0.390 OA
HETATM   26  H9  UNK   900      31.538 -42.669 -64.800  1.00  0.00     0.210 HD
ENDBRANCH  21  25
BRANCH  22  27
HETATM   27  O5  UNK   900      33.989 -44.214 -62.586  1.00  0.00    -0.388 OA
HETATM   28  H11 UNK   900      34.515 -43.568 -63.088  1.00  0.00     0.210 HD
ENDBRANCH  22  27
ENDBRANCH  15  16
ENDBRANCH   3  15
BRANCH  11  29
HETATM   29  S1  UNK   900      36.888 -49.786 -62.174  1.00  0.00    -0.132 SA
HETATM   30  C20 UNK   900      37.882 -48.948 -60.912  1.00  0.00     0.095 C 
ENDBRANCH  11  29
BRANCH  12  31
HETATM   31  C19 UNK   900      33.552 -53.457 -58.777  1.00  0.00     0.178 C 
HETATM   32  O7  UNK   900      33.096 -54.539 -59.155  1.00  0.00    -0.646 OA
BRANCH  31  33
HETATM   33  O6  UNK   900      33.373 -52.994 -57.511  1.00  0.00    -0.773 OA
HETATM   34  H20 UNK   900      33.309 -52.016 -57.485  1.00  0.00     0.167 HD
ENDBRANCH  31  33
ENDBRANCH  12  31
TORSDOF 8
ENDMDL
MODEL 3
REMARK VINA RESULT:      -7.4      2.326      3.037
REMARK  8 active torsions:
REMARK  status: ('A' for Active; 'I' for Inactive)
REMARK    1  A    between atoms: S1_1  and  C15_25 
REMARK    2  A    between atoms: O2_3  and  C5_15 
REMARK    3  A    between atoms: O2_3  and  C7_17 
REMARK    4  A    between atoms: O3_4  and  C1_11 
REMARK    5  A    between atoms: O4_5  and  C2_12 
REMARK    6  A    between atoms: O5_6  and  C3_13 
REMARK    7  A    between atoms: O6_7  and  C19_29 
REMARK    8  A    between atoms: C16_26  and  C19_29 
ROOT
HETATM    1  N1  UNK   900      33.522 -49.238 -61.328  1.00  0.00    -0.240 NA
HETATM    2  N2  UNK   900      32.478 -51.370 -59.930  1.00  0.00    -0.243 NA
HETATM    3  C7  UNK   900      31.348 -48.298 -61.518  1.00  0.00     0.103 A 
HETATM    4  C8  UNK   900      32.204 -49.304 -61.076  1.00  0.00     0.119 A 
HETATM    5  C9  UNK   900      29.980 -48.349 -61.267  1.00  0.00     0.039 A 
HETATM    6  C10 UNK   900      31.675 -50.387 -60.367  1.00  0.00     0.089 A 
HETATM    7  C11 UNK   900      34.326 -50.221 -60.891  1.00  0.00     0.104 A 
HETATM    8  C12 UNK   900      29.454 -49.423 -60.564  1.00  0.00     0.005 A 
HETATM    9  C13 UNK   900      30.305 -50.434 -60.119  1.00  0.00     0.034 A 
HETATM   10  C14 UNK   900      33.796 -51.304 -60.182  1.00  0.00     0.104 A 
HETATM   11  C15 UNK   900      35.696 -50.175 -61.139  1.00  0.00     0.031 A 
HETATM   12  C16 UNK   900      34.651 -52.311 -59.739  1.00  0.00     0.068 A 
HETATM   13  C17 UNK   900      36.546 -51.185 -60.694  1.00  0.00     0.022 A 
HETATM   14  C18 UNK   900      36.021 -52.259 -59.989  1.00  0.00     0.022 A 
ENDROOT
BRANCH   3  15
HETATM   15  O2  UNK   900      31.846 -47.229 -62.213  1.00  0.00    -0.315 OA
BRANCH  15  16
HETATM   16  C5  UNK   900      31.851 -47.338 -63.637  1.00  0.00     0.298 C 
HETATM   17  O1  UNK   900      33.192 -47.252 -64.119  1.00  0.00    -0.351 OA
HETATM   18  C4  UNK   900      33.286 -47.352 -65.545  1.00  0.00     0.152 C 
HETATM   19  C2  UNK   900      32.523 -46.198 -66.219  1.00  0.00     0.178 C 
HETATM   20  C6  UNK   900      34.768 -47.352 -65.902  1.00  0.00     0.042 C 
HETATM   21  C1  UNK   900      31.074 -46.132 -65.728  1.00  0.00     0.183 C 
HETATM   22  C3  UNK   900      31.015 -46.186 -64.197  1.00  0.00     0.205 C 
BRANCH  19  23
HETATM   23  O4  UNK   900      33.172 -44.965 -65.915  1.00  0.00    -0.390 OA
HETATM   24  H10 UNK   900      33.763 -44.754 -66.658  1.00  0.00     0.210 HD
ENDBRANCH  19  23
BRANCH  21  25
HETATM   25  O3  UNK   900      30.328 -47.207 -66.300  1.00  0.00    -0.390 OA
HETATM   26  H9  UNK   900      29.938 -47.714 -65.568  1.00  0.00     0.210 HD
ENDBRANCH  21  25
BRANCH  22  27
HETATM   27  O5  UNK   900      29.666 -46.323 -63.765  1.00  0.00    -0.388 OA
HETATM   28  H11 UNK   900      29.446 -45.536 -63.238  1.00  0.00     0.210 HD
ENDBRANCH  22  27
ENDBRANCH  15  16
ENDBRANCH   3  15
BRANCH  11  29
HETATM   29  S1  UNK   900      36.435 -48.812 -62.045  1.00  0.00    -0.132 SA
HETATM   30  C20 UNK   900      37.574 -49.693 -63.145  1.00  0.00     0.095 C 
ENDBRANCH  11  29
BRANCH  12  31
HETATM   31  C19 UNK   900      34.134 -53.454 -58.997  1.00  0.00     0.178 C 
HETATM   32  O7  UNK   900      34.257 -54.635 -59.331  1.00  0.00    -0.646 OA
BRANCH  31  33
HETATM   33  O6  UNK   900      33.482 -53.083 -57.863  1.00  0.00    -0.773 OA
HETATM   34  H20 UNK   900      33.315 -53.847 -57.270  1.00  0.00     0.167 HD
ENDBRANCH  31  33
ENDBRANCH  12  31
TORSDOF 8
ENDMDL
MODEL 4
REMARK VINA RESULT:      -7.2      2.463      3.453
REMARK  8 active torsions:
REMARK  status: ('A' for Active; 'I' for Inactive)
REMARK    1  A    between atoms: S1_1  and  C15_25 
REMARK    2  A    between atoms: O2_3  and  C5_15 
REMARK    3  A    between atoms: O2_3  and  C7_17 
REMARK    4  A    between atoms: O3_4  and  C1_11 
REMARK    5  A    between atoms: O4_5  and  C2_12 
REMARK    6  A    between atoms: O5_6  and  C3_13 
REMARK    7  A    between atoms: O6_7  and  C19_29 
REMARK    8  A    between atoms: C16_26  and  C19_29 
ROOT
HETATM    1  N1  UNK   900      33.067 -47.207 -63.175  1.00  0.00    -0.240 NA
HETATM    2  N2  UNK   900      31.158 -48.848 -62.056  1.00  0.00    -0.243 NA
HETATM    3  C7  UNK   900      31.456 -46.380 -64.714  1.00  0.00     0.103 A 
HETATM    4  C8  UNK   900      31.811 -47.208 -63.650  1.00  0.00     0.119 A 
HETATM    5  C9  UNK   900      30.159 -46.368 -65.220  1.00  0.00     0.039 A 
HETATM    6  C10 UNK   900      30.842 -48.042 -63.082  1.00  0.00     0.089 A 
HETATM    7  C11 UNK   900      33.383 -48.013 -62.149  1.00  0.00     0.104 A 
HETATM    8  C12 UNK   900      29.198 -47.194 -64.657  1.00  0.00     0.005 A 
HETATM    9  C13 UNK   900      29.546 -48.025 -63.592  1.00  0.00     0.034 A 
HETATM   10  C14 UNK   900      32.414 -48.847 -61.581  1.00  0.00     0.104 A 
HETATM   11  C15 UNK   900      34.679 -48.030 -61.637  1.00  0.00     0.031 A 
HETATM   12  C16 UNK   900      32.768 -49.674 -60.517  1.00  0.00     0.068 A 
HETATM   13  C17 UNK   900      35.027 -48.860 -60.573  1.00  0.00     0.022 A 
HETATM   14  C18 UNK   900      34.066 -49.686 -60.010  1.00  0.00     0.022 A 
ENDROOT
BRANCH   3  15
HETATM   15  O2  UNK   900      32.389 -45.556 -65.283  1.00  0.00    -0.315 OA
BRANCH  15  16
HETATM   16  C5  UNK   900      32.245 -44.158 -65.028  1.00  0.00     0.298 C 
HETATM   17  O1  UNK   900      31.852 -43.491 -66.229  1.00  0.00    -0.351 OA
HETATM   18  C4  UNK   900      31.687 -42.079 -66.061  1.00  0.00     0.152 C 
HETATM   19  C2  UNK   900      33.013 -41.426 -65.633  1.00  0.00     0.178 C 
HETATM   20  C6  UNK   900      31.168 -41.523 -67.383  1.00  0.00     0.042 C 
HETATM   21  C1  UNK   900      33.586 -42.104 -64.386  1.00  0.00     0.183 C 
HETATM   22  C3  UNK   900      33.598 -43.628 -64.551  1.00  0.00     0.205 C 
BRANCH  19  23
HETATM   23  O4  UNK   900      33.957 -41.540 -66.697  1.00  0.00    -0.390 OA
HETATM   24  H10 UNK   900      34.549 -40.769 -66.647  1.00  0.00     0.210 HD
ENDBRANCH  19  23
BRANCH  21  25
HETATM   25  O3  UNK   900      32.817 -41.726 -63.243  1.00  0.00    -0.390 OA
HETATM   26  H9  UNK   900      33.392 -41.807 -62.463  1.00  0.00     0.210 HD
ENDBRANCH  21  25
BRANCH  22  27
HETATM   27  O5  UNK   900      33.944 -44.250 -63.318  1.00  0.00    -0.388 OA
HETATM   28  H11 UNK   900      34.702 -43.766 -62.948  1.00  0.00     0.210 HD
ENDBRANCH  22  27
ENDBRANCH  15  16
ENDBRANCH   3  15
BRANCH  11  29
HETATM   29  S1  UNK   900      35.967 -46.984 -62.324  1.00  0.00    -0.132 SA
HETATM   30  C20 UNK   900      36.128 -45.724 -61.032  1.00  0.00     0.095 C 
ENDBRANCH  11  29
BRANCH  12  31
HETATM   31  C19 UNK   900      31.783 -50.556 -59.901  1.00  0.00     0.178 C 
HETATM   32  O7  UNK   900      31.755 -51.784 -60.019  1.00  0.00    -0.646 OA
BRANCH  31  33
HETATM   33  O6  UNK   900      30.871 -49.875 -59.158  1.00  0.00    -0.773 OA
HETATM   34  H20 UNK   900      31.101 -49.876 -58.204  1.00  0.00     0.167 HD
ENDBRANCH  31  33
ENDBRANCH  12  31
TORSDOF 8
ENDMDL
MODEL 5
REMARK VINA RESULT:      -7.1     10.539     13.168
REMARK  8 active torsions:
REMARK  status: ('A' for Active; 'I' for Inactive)
REMARK    1  A    between atoms: S1_1  and  C15_25 
REMARK    2  A    between atoms: O2_3  and  C5_15 
REMARK    3  A    between atoms: O2_3  and  C7_17 
REMARK    4  A    between atoms: O3_4  and  C1_11 
REMARK    5  A    between atoms: O4_5  and  C2_12 
REMARK    6  A    between atoms: O5_6  and  C3_13 
REMARK    7  A    between atoms: O6_7  and  C19_29 
REMARK    8  A    between atoms: C16_26  and  C19_29 
ROOT
HETATM    1  N1  UNK   900      37.135 -38.235 -55.998  1.00  0.00    -0.240 NA
HETATM    2  N2  UNK   900      34.492 -39.007 -55.929  1.00  0.00    -0.243 NA
HETATM    3  C7  UNK   900      37.782 -40.374 -55.189  1.00  0.00     0.103 A 
HETATM    4  C8  UNK   900      36.800 -39.469 -55.587  1.00  0.00     0.119 A 
HETATM    5  C9  UNK   900      37.453 -41.656 -54.759  1.00  0.00     0.039 A 
HETATM    6  C10 UNK   900      35.458 -39.860 -55.551  1.00  0.00     0.089 A 
HETATM    7  C11 UNK   900      36.170 -37.382 -56.377  1.00  0.00     0.104 A 
HETATM    8  C12 UNK   900      36.122 -42.045 -54.724  1.00  0.00     0.005 A 
HETATM    9  C13 UNK   900      35.134 -41.145 -55.120  1.00  0.00     0.034 A 
HETATM   10  C14 UNK   900      34.828 -37.773 -56.341  1.00  0.00     0.104 A 
HETATM   11  C15 UNK   900      36.492 -36.097 -56.808  1.00  0.00     0.031 A 
HETATM   12  C16 UNK   900      33.845 -36.870 -56.738  1.00  0.00     0.068 A 
HETATM   13  C17 UNK   900      35.505 -35.197 -57.204  1.00  0.00     0.022 A 
HETATM   14  C18 UNK   900      34.174 -35.586 -57.170  1.00  0.00     0.022 A 
ENDROOT
BRANCH   3  15
HETATM   15  O2  UNK   900      39.102 -40.011 -55.218  1.00  0.00    -0.315 OA
BRANCH  15  16
HETATM   16  C5  UNK   900      40.056 -41.073 -55.190  1.00  0.00     0.298 C 
HETATM   17  O1  UNK   900      40.862 -40.961 -54.016  1.00  0.00    -0.351 OA
HETATM   18  C4  UNK   900      41.851 -41.991 -53.910  1.00  0.00     0.152 C 
HETATM   19  C2  UNK   900      42.828 -41.926 -55.097  1.00  0.00     0.178 C 
HETATM   20  C6  UNK   900      42.555 -41.808 -52.570  1.00  0.00     0.042 C 
HETATM   21  C1  UNK   900      42.080 -41.964 -56.432  1.00  0.00     0.183 C 
HETATM   22  C3  UNK   900      40.929 -40.951 -56.440  1.00  0.00     0.205 C 
BRANCH  19  23
HETATM   23  O4  UNK   900      43.580 -40.716 -55.021  1.00  0.00    -0.390 OA
HETATM   24  H10 UNK   900      42.953 -39.991 -54.857  1.00  0.00     0.210 HD
ENDBRANCH  19  23
BRANCH  21  25
HETATM   25  O3  UNK   900      41.590 -43.284 -56.667  1.00  0.00    -0.390 OA
HETATM   26  H9  UNK   900      41.836 -43.531 -57.575  1.00  0.00     0.210 HD
ENDBRANCH  21  25
BRANCH  22  27
HETATM   27  O5  UNK   900      40.125 -41.133 -57.601  1.00  0.00    -0.388 OA
HETATM   28  H11 UNK   900      40.721 -41.163 -58.368  1.00  0.00     0.210 HD
ENDBRANCH  22  27
ENDBRANCH  15  16
ENDBRANCH   3  15
BRANCH  11  29
HETATM   29  S1  UNK   900      38.197 -35.535 -56.875  1.00  0.00    -0.132 SA
HETATM   30  C20 UNK   900      38.672 -36.040 -58.550  1.00  0.00     0.095 C 
ENDBRANCH  11  29
BRANCH  12  31
HETATM   31  C19 UNK   900      32.436 -37.243 -56.714  1.00  0.00     0.178 C 
HETATM   32  O7  UNK   900      31.700 -37.311 -57.703  1.00  0.00    -0.646 OA
BRANCH  31  33
HETATM   33  O6  UNK   900      31.995 -37.520 -55.459  1.00  0.00    -0.773 OA
HETATM   34  H20 UNK   900      32.058 -36.739 -54.868  1.00  0.00     0.167 HD
ENDBRANCH  31  33
ENDBRANCH  12  31
TORSDOF 8
ENDMDL
MODEL 6
REMARK VINA RESULT:      -6.9     33.438     36.494
REMARK  8 active torsions:
REMARK  status: ('A' for Active; 'I' for Inactive)
REMARK    1  A    between atoms: S1_1  and  C15_25 
REMARK    2  A    between atoms: O2_3  and  C5_15 
REMARK    3  A    between atoms: O2_3  and  C7_17 
REMARK    4  A    between atoms: O3_4  and  C1_11 
REMARK    5  A    between atoms: O4_5  and  C2_12 
REMARK    6  A    between atoms: O5_6  and  C3_13 
REMARK    7  A    between atoms: O6_7  and  C19_29 
REMARK    8  A    between atoms: C16_26  and  C19_29 
ROOT
HETATM    1  N1  UNK   900       5.842 -69.017 -50.618  1.00  0.00    -0.240 NA
HETATM    2  N2  UNK   900       5.090 -66.528 -51.526  1.00  0.00    -0.243 NA
HETATM    3  C7  UNK   900       8.125 -68.453 -50.958  1.00  0.00     0.103 A 
HETATM    4  C8  UNK   900       6.771 -68.129 -51.008  1.00  0.00     0.119 A 
HETATM    5  C9  UNK   900       9.102 -67.545 -51.359  1.00  0.00     0.039 A 
HETATM    6  C10 UNK   900       6.388 -66.865 -51.469  1.00  0.00     0.089 A 
HETATM    7  C11 UNK   900       4.543 -68.681 -50.674  1.00  0.00     0.104 A 
HETATM    8  C12 UNK   900       8.723 -66.291 -51.816  1.00  0.00     0.005 A 
HETATM    9  C13 UNK   900       7.370 -65.960 -51.868  1.00  0.00     0.034 A 
HETATM   10  C14 UNK   900       4.161 -67.416 -51.136  1.00  0.00     0.104 A 
HETATM   11  C15 UNK   900       3.561 -69.584 -50.276  1.00  0.00     0.031 A 
HETATM   12  C16 UNK   900       2.808 -67.091 -51.185  1.00  0.00     0.068 A 
HETATM   13  C17 UNK   900       2.209 -69.254 -50.327  1.00  0.00     0.022 A 
HETATM   14  C18 UNK   900       1.830 -68.000 -50.784  1.00  0.00     0.022 A 
ENDROOT
BRANCH   3  15
HETATM   15  O2  UNK   900       8.520 -69.684 -50.509  1.00  0.00    -0.315 OA
BRANCH  15  16
HETATM   16  C5  UNK   900       9.266 -69.709 -49.291  1.00  0.00     0.298 C 
HETATM   17  O1  UNK   900      10.573 -70.228 -49.541  1.00  0.00    -0.351 OA
HETATM   18  C4  UNK   900      11.390 -70.289 -48.367  1.00  0.00     0.152 C 
HETATM   19  C2  UNK   900      10.761 -71.224 -47.319  1.00  0.00     0.178 C 
HETATM   20  C6  UNK   900      12.775 -70.755 -48.802  1.00  0.00     0.042 C 
HETATM   21  C1  UNK   900       9.317 -70.819 -47.011  1.00  0.00     0.183 C 
HETATM   22  C3  UNK   900       8.522 -70.612 -48.305  1.00  0.00     0.205 C 
BRANCH  19  23
HETATM   23  O4  UNK   900      10.770 -72.561 -47.817  1.00  0.00    -0.390 OA
HETATM   24  H10 UNK   900      10.641 -73.157 -47.059  1.00  0.00     0.210 HD
ENDBRANCH  19  23
BRANCH  21  25
HETATM   25  O3  UNK   900       9.315 -69.628 -46.222  1.00  0.00    -0.390 OA
HETATM   26  H9  UNK   900       8.428 -69.536 -45.833  1.00  0.00     0.210 HD
ENDBRANCH  21  25
BRANCH  22  27
HETATM   27  O5  UNK   900       7.249 -70.047 -48.012  1.00  0.00    -0.388 OA
HETATM   28  H11 UNK   900       7.217 -69.167 -48.424  1.00  0.00     0.210 HD
ENDBRANCH  22  27
ENDBRANCH  15  16
ENDBRANCH   3  15
BRANCH  11  29
HETATM   29  S1  UNK   900       3.989 -71.222 -49.675  1.00  0.00    -0.132 SA
HETATM   30  C20 UNK   900       4.030 -72.168 -51.221  1.00  0.00     0.095 C 
ENDBRANCH  11  29
BRANCH  12  31
HETATM   31  C19 UNK   900       2.373 -65.783 -51.660  1.00  0.00     0.178 C 
HETATM   32  O7  UNK   900       1.772 -64.944 -50.985  1.00  0.00    -0.646 OA
BRANCH  31  33
HETATM   33  O6  UNK   900       2.704 -65.569 -52.961  1.00  0.00    -0.773 OA
HETATM   34  H20 UNK   900       3.448 -64.936 -53.050  1.00  0.00     0.167 HD
ENDBRANCH  31  33
ENDBRANCH  12  31
TORSDOF 8
ENDMDL
MODEL 7
REMARK VINA RESULT:      -6.8     27.494     29.679
REMARK  8 active torsions:
REMARK  status: ('A' for Active; 'I' for Inactive)
REMARK    1  A    between atoms: S1_1  and  C15_25 
REMARK    2  A    between atoms: O2_3  and  C5_15 
REMARK    3  A    between atoms: O2_3  and  C7_17 
REMARK    4  A    between atoms: O3_4  and  C1_11 
REMARK    5  A    between atoms: O4_5  and  C2_12 
REMARK    6  A    between atoms: O5_6  and  C3_13 
REMARK    7  A    between atoms: O6_7  and  C19_29 
REMARK    8  A    between atoms: C16_26  and  C19_29 
ROOT
HETATM    1  N1  UNK   900       7.564 -50.609 -75.232  1.00  0.00    -0.240 NA
HETATM    2  N2  UNK   900       9.921 -51.949 -74.747  1.00  0.00    -0.243 NA
HETATM    3  C7  UNK   900       7.920 -49.279 -73.296  1.00  0.00     0.103 A 
HETATM    4  C8  UNK   900       8.318 -50.290 -74.168  1.00  0.00     0.119 A 
HETATM    5  C9  UNK   900       8.689 -48.935 -72.187  1.00  0.00     0.039 A 
HETATM    6  C10 UNK   900       9.514 -50.971 -73.922  1.00  0.00     0.089 A 
HETATM    7  C11 UNK   900       7.970 -51.587 -76.058  1.00  0.00     0.104 A 
HETATM    8  C12 UNK   900       9.875 -49.610 -71.942  1.00  0.00     0.005 A 
HETATM    9  C13 UNK   900      10.280 -50.623 -72.811  1.00  0.00     0.034 A 
HETATM   10  C14 UNK   900       9.166 -52.268 -75.811  1.00  0.00     0.104 A 
HETATM   11  C15 UNK   900       7.206 -51.936 -77.169  1.00  0.00     0.031 A 
HETATM   12  C16 UNK   900       9.565 -53.279 -76.682  1.00  0.00     0.068 A 
HETATM   13  C17 UNK   900       7.609 -52.948 -78.037  1.00  0.00     0.022 A 
HETATM   14  C18 UNK   900       8.797 -53.623 -77.793  1.00  0.00     0.022 A 
ENDROOT
BRANCH   3  15
HETATM   15  O2  UNK   900       6.753 -48.599 -73.520  1.00  0.00    -0.315 OA
BRANCH  15  16
HETATM   16  C5  UNK   900       6.877 -47.240 -73.942  1.00  0.00     0.298 C 
HETATM   17  O1  UNK   900       6.337 -46.377 -72.941  1.00  0.00    -0.351 OA
HETATM   18  C4  UNK   900       6.420 -44.990 -73.287  1.00  0.00     0.152 C 
HETATM   19  C2  UNK   900       5.616 -44.703 -74.567  1.00  0.00     0.178 C 
HETATM   20  C6  UNK   900       5.910 -44.193 -72.092  1.00  0.00     0.042 C 
HETATM   21  C1  UNK   900       6.051 -45.622 -75.712  1.00  0.00     0.183 C 
HETATM   22  C3  UNK   900       6.098 -47.083 -75.249  1.00  0.00     0.205 C 
BRANCH  19  23
HETATM   23  O4  UNK   900       4.229 -44.911 -74.308  1.00  0.00    -0.390 OA
HETATM   24  H10 UNK   900       4.110 -44.927 -73.343  1.00  0.00     0.210 HD
ENDBRANCH  19  23
BRANCH  21  25
HETATM   25  O3  UNK   900       7.327 -45.206 -76.198  1.00  0.00    -0.390 OA
HETATM   26  H9  UNK   900       7.175 -44.539 -76.888  1.00  0.00     0.210 HD
ENDBRANCH  21  25
BRANCH  22  27
HETATM   27  O5  UNK   900       6.690 -47.896 -76.256  1.00  0.00    -0.388 OA
HETATM   28  H11 UNK   900       6.691 -47.384 -77.082  1.00  0.00     0.210 HD
ENDBRANCH  22  27
ENDBRANCH  15  16
ENDBRANCH   3  15
BRANCH  11  29
HETATM   29  S1  UNK   900       5.660 -51.099 -77.539  1.00  0.00    -0.132 SA
HETATM   30  C20 UNK   900       5.044 -52.087 -78.928  1.00  0.00     0.095 C 
ENDBRANCH  11  29
BRANCH  12  31
HETATM   31  C19 UNK   900      10.807 -54.010 -76.456  1.00  0.00     0.178 C 
HETATM   32  O7  UNK   900      11.795 -53.981 -77.195  1.00  0.00    -0.646 OA
BRANCH  31  33
HETATM   33  O6  UNK   900      10.771 -54.750 -75.317  1.00  0.00    -0.773 OA
HETATM   34  H20 UNK   900      11.583 -55.290 -75.205  1.00  0.00     0.167 HD
ENDBRANCH  31  33
ENDBRANCH  12  31
TORSDOF 8
ENDMDL
MODEL 8
REMARK VINA RESULT:      -6.7     33.998     37.461
REMARK  8 active torsions:
REMARK  status: ('A' for Active; 'I' for Inactive)
REMARK    1  A    between atoms: S1_1  and  C15_25 
REMARK    2  A    between atoms: O2_3  and  C5_15 
REMARK    3  A    between atoms: O2_3  and  C7_17 
REMARK    4  A    between atoms: O3_4  and  C1_11 
REMARK    5  A    between atoms: O4_5  and  C2_12 
REMARK    6  A    between atoms: O5_6  and  C3_13 
REMARK    7  A    between atoms: O6_7  and  C19_29 
REMARK    8  A    between atoms: C16_26  and  C19_29 
ROOT
HETATM    1  N1  UNK   900       3.315 -68.864 -51.981  1.00  0.00    -0.240 NA
HETATM    2  N2  UNK   900       2.638 -70.653 -53.963  1.00  0.00    -0.243 NA
HETATM    3  C7  UNK   900       5.426 -69.928 -51.740  1.00  0.00     0.103 A 
HETATM    4  C8  UNK   900       4.178 -69.824 -52.351  1.00  0.00     0.119 A 
HETATM    5  C9  UNK   900       6.333 -70.916 -52.111  1.00  0.00     0.039 A 
HETATM    6  C10 UNK   900       3.833 -70.732 -53.357  1.00  0.00     0.089 A 
HETATM    7  C11 UNK   900       2.119 -68.784 -52.586  1.00  0.00     0.104 A 
HETATM    8  C12 UNK   900       5.992 -71.818 -53.108  1.00  0.00     0.005 A 
HETATM    9  C13 UNK   900       4.746 -71.719 -53.724  1.00  0.00     0.034 A 
HETATM   10  C14 UNK   900       1.775 -69.693 -53.592  1.00  0.00     0.104 A 
HETATM   11  C15 UNK   900       1.206 -67.797 -52.220  1.00  0.00     0.031 A 
HETATM   12  C16 UNK   900       0.528 -69.589 -54.204  1.00  0.00     0.068 A 
HETATM   13  C17 UNK   900      -0.040 -67.699 -52.835  1.00  0.00     0.022 A 
HETATM   14  C18 UNK   900      -0.381 -68.599 -53.834  1.00  0.00     0.022 A 
ENDROOT
BRANCH   3  15
HETATM   15  O2  UNK   900       5.783 -69.048 -50.754  1.00  0.00    -0.315 OA
BRANCH  15  16
HETATM   16  C5  UNK   900       7.118 -68.544 -50.801  1.00  0.00     0.298 C 
HETATM   17  O1  UNK   900       7.865 -69.063 -49.700  1.00  0.00    -0.351 OA
HETATM   18  C4  UNK   900       9.221 -68.604 -49.672  1.00  0.00     0.152 C 
HETATM   19  C2  UNK   900       9.270 -67.073 -49.527  1.00  0.00     0.178 C 
HETATM   20  C6  UNK   900       9.916 -69.317 -48.517  1.00  0.00     0.042 C 
HETATM   21  C1  UNK   900       8.440 -66.387 -50.616  1.00  0.00     0.183 C 
HETATM   22  C3  UNK   900       7.046 -67.018 -50.715  1.00  0.00     0.205 C 
BRANCH  19  23
HETATM   23  O4  UNK   900       8.753 -66.704 -48.250  1.00  0.00    -0.390 OA
HETATM   24  H10 UNK   900       9.349 -67.073 -47.575  1.00  0.00     0.210 HD
ENDBRANCH  19  23
BRANCH  21  25
HETATM   25  O3  UNK   900       9.125 -66.478 -51.865  1.00  0.00    -0.390 OA
HETATM   26  H9  UNK   900       8.778 -67.256 -52.334  1.00  0.00     0.210 HD
ENDBRANCH  21  25
BRANCH  22  27
HETATM   27  O5  UNK   900       6.360 -66.510 -51.854  1.00  0.00    -0.388 OA
HETATM   28  H11 UNK   900       6.826 -65.707 -52.143  1.00  0.00     0.210 HD
ENDBRANCH  22  27
ENDBRANCH  15  16
ENDBRANCH   3  15
BRANCH  11  29
HETATM   29  S1  UNK   900       1.590 -66.602 -50.934  1.00  0.00    -0.132 SA
HETATM   30  C20 UNK   900       2.726 -65.493 -51.808  1.00  0.00     0.095 C 
ENDBRANCH  11  29
BRANCH  12  31
HETATM   31  C19 UNK   900       0.135 -70.519 -55.257  1.00  0.00     0.178 C 
HETATM   32  O7  UNK   900       0.095 -70.255 -56.461  1.00  0.00    -0.646 OA
BRANCH  31  33
HETATM   33  O6  UNK   900      -0.193 -71.744 -54.768  1.00  0.00    -0.773 OA
HETATM   34  H20 UNK   900      -0.948 -71.699 -54.143  1.00  0.00     0.167 HD
ENDBRANCH  31  33
ENDBRANCH  12  31
TORSDOF 8
ENDMDL
MODEL 9
REMARK VINA RESULT:      -6.5     33.688     36.576
REMARK  8 active torsions:
REMARK  status: ('A' for Active; 'I' for Inactive)
REMARK    1  A    between atoms: S1_1  and  C15_25 
REMARK    2  A    between atoms: O2_3  and  C5_15 
REMARK    3  A    between atoms: O2_3  and  C7_17 
REMARK    4  A    between atoms: O3_4  and  C1_11 
REMARK    5  A    between atoms: O4_5  and  C2_12 
REMARK    6  A    between atoms: O5_6  and  C3_13 
REMARK    7  A    between atoms: O6_7  and  C19_29 
REMARK    8  A    between atoms: C16_26  and  C19_29 
ROOT
HETATM    1  N1  UNK   900       6.124 -68.776 -48.990  1.00  0.00    -0.240 NA
HETATM    2  N2  UNK   900       8.765 -68.446 -49.697  1.00  0.00    -0.243 NA
HETATM    3  C7  UNK   900       5.510 -67.006 -50.451  1.00  0.00     0.103 A 
HETATM    4  C8  UNK   900       6.475 -67.831 -49.877  1.00  0.00     0.119 A 
HETATM    5  C9  UNK   900       5.855 -66.020 -51.372  1.00  0.00     0.039 A 
HETATM    6  C10 UNK   900       7.816 -67.663 -50.235  1.00  0.00     0.089 A 
HETATM    7  C11 UNK   900       7.072 -69.559 -48.451  1.00  0.00     0.104 A 
HETATM    8  C12 UNK   900       7.185 -65.853 -51.728  1.00  0.00     0.005 A 
HETATM    9  C13 UNK   900       8.156 -66.676 -51.157  1.00  0.00     0.034 A 
HETATM   10  C14 UNK   900       8.414 -69.391 -48.810  1.00  0.00     0.104 A 
HETATM   11  C15 UNK   900       6.734 -70.547 -47.529  1.00  0.00     0.031 A 
HETATM   12  C16 UNK   900       9.379 -70.216 -48.236  1.00  0.00     0.068 A 
HETATM   13  C17 UNK   900       7.703 -71.369 -46.959  1.00  0.00     0.022 A 
HETATM   14  C18 UNK   900       9.034 -71.203 -47.315  1.00  0.00     0.022 A 
ENDROOT
BRANCH   3  15
HETATM   15  O2  UNK   900       4.191 -67.155 -50.115  1.00  0.00    -0.315 OA
BRANCH  15  16
HETATM   16  C5  UNK   900       3.251 -66.387 -50.867  1.00  0.00     0.298 C 
HETATM   17  O1  UNK   900       2.415 -65.648 -49.975  1.00  0.00    -0.351 OA
HETATM   18  C4  UNK   900       1.437 -64.849 -50.650  1.00  0.00     0.152 C 
HETATM   19  C2  UNK   900       0.489 -65.737 -51.475  1.00  0.00     0.178 C 
HETATM   20  C6  UNK   900       0.698 -64.043 -49.587  1.00  0.00     0.042 C 
HETATM   21  C1  UNK   900       1.270 -66.642 -52.430  1.00  0.00     0.183 C 
HETATM   22  C3  UNK   900       2.407 -67.359 -51.693  1.00  0.00     0.205 C 
BRANCH  19  23
HETATM   23  O4  UNK   900      -0.280 -66.550 -50.591  1.00  0.00    -0.390 OA
HETATM   24  H10 UNK   900       0.095 -67.447 -50.616  1.00  0.00     0.210 HD
ENDBRANCH  19  23
BRANCH  21  25
HETATM   25  O3  UNK   900       1.783 -65.864 -53.512  1.00  0.00    -0.390 OA
HETATM   26  H9  UNK   900       1.073 -65.269 -53.808  1.00  0.00     0.210 HD
ENDBRANCH  21  25
BRANCH  22  27
HETATM   27  O5  UNK   900       3.242 -68.039 -52.625  1.00  0.00    -0.388 OA
HETATM   28  H11 UNK   900       3.104 -67.627 -53.495  1.00  0.00     0.210 HD
ENDBRANCH  22  27
ENDBRANCH  15  16
ENDBRANCH   3  15
BRANCH  11  29
HETATM   29  S1  UNK   900       5.029 -70.811 -47.028  1.00  0.00    -0.132 SA
HETATM   30  C20 UNK   900       5.055 -70.175 -45.331  1.00  0.00     0.095 C 
ENDBRANCH  11  29
BRANCH  12  31
HETATM   31  C19 UNK   900      10.787 -70.069 -48.587  1.00  0.00     0.178 C 
HETATM   32  O7  UNK   900      11.458 -70.901 -49.204  1.00  0.00    -0.646 OA
BRANCH  31  33
HETATM   33  O6  UNK   900      11.308 -68.890 -48.154  1.00  0.00    -0.773 OA
HETATM   34  H20 UNK   900      11.203 -68.778 -47.185  1.00  0.00     0.167 HD
ENDBRANCH  31  33
ENDBRANCH  12  31
TORSDOF 8
ENDMDL
