MODEL 1
REMARK VINA RESULT:      -5.9      0.000      0.000
REMARK  3 active torsions:
REMARK  status: ('A' for Active; 'I' for Inactive)
REMARK    1  A    between atoms: O2_2  and  C1_5 
REMARK    2  A    between atoms: O3_3  and  C7_11 
REMARK    3  A    between atoms: O4_4  and  C9_13 
ROOT
HETATM    1  O1  UNK   900      32.268 -48.559 -61.200  1.00  0.00    -0.379 OA
HETATM    2  C1  UNK   900      31.488 -50.682 -60.318  1.00  0.00     0.181 C 
HETATM    3  C2  UNK   900      31.270 -49.574 -61.359  1.00  0.00     0.151 C 
HETATM    4  C3  UNK   900      32.924 -51.127 -60.244  1.00  0.00    -0.007 A 
HETATM    5  C4  UNK   900      33.943 -50.301 -60.745  1.00  0.00     0.008 A 
HETATM    6  C5  UNK   900      33.607 -49.002 -61.427  1.00  0.00     0.210 C 
HETATM    7  C6  UNK   900      33.258 -52.346 -59.637  1.00  0.00    -0.019 A 
HETATM    8  C7  UNK   900      35.278 -50.716 -60.654  1.00  0.00     0.080 A 
HETATM    9  C8  UNK   900      31.202 -50.095 -62.795  1.00  0.00     0.042 C 
HETATM   10  C9  UNK   900      34.589 -52.748 -59.546  1.00  0.00     0.074 A 
HETATM   11  C10 UNK   900      35.598 -51.934 -60.055  1.00  0.00     0.074 A 
HETATM   12  C11 UNK   900      32.196 -53.239 -59.074  1.00  0.00     0.052 C 
ENDROOT
BRANCH   2  13
HETATM   13  O2  UNK   900      31.142 -50.180 -59.027  1.00  0.00    -0.388 OA
HETATM   14  H12 UNK   900      30.847 -50.934 -58.489  1.00  0.00     0.210 HD
ENDBRANCH   2  13
BRANCH   8  15
HETATM   15  O3  UNK   900      36.286 -49.946 -61.154  1.00  0.00    -0.355 OA
HETATM   16  C12 UNK   900      37.532 -49.984 -60.463  1.00  0.00     0.210 C 
ENDBRANCH   8  15
BRANCH  10  17
HETATM   17  O4  UNK   900      34.925 -53.932 -58.961  1.00  0.00    -0.360 OA
HETATM   18  H13 UNK   900      34.170 -54.543 -59.020  1.00  0.00     0.217 HD
ENDBRANCH  10  17
TORSDOF 3
ENDMDL
MODEL 2
REMARK VINA RESULT:      -5.5     30.855     33.563
REMARK  3 active torsions:
REMARK  status: ('A' for Active; 'I' for Inactive)
REMARK    1  A    between atoms: O2_2  and  C1_5 
REMARK    2  A    between atoms: O3_3  and  C7_11 
REMARK    3  A    between atoms: O4_4  and  C9_13 
ROOT
HETATM    1  O1  UNK   900       5.196 -67.820 -47.252  1.00  0.00    -0.379 OA
HETATM    2  C1  UNK   900       7.545 -67.611 -47.822  1.00  0.00     0.181 C 
HETATM    3  C2  UNK   900       6.456 -68.498 -47.201  1.00  0.00     0.151 C 
HETATM    4  C3  UNK   900       7.126 -67.024 -49.143  1.00  0.00    -0.007 A 
HETATM    5  C4  UNK   900       5.765 -66.962 -49.484  1.00  0.00     0.008 A 
HETATM    6  C5  UNK   900       4.721 -67.545 -48.571  1.00  0.00     0.210 C 
HETATM    7  C6  UNK   900       8.084 -66.500 -50.022  1.00  0.00    -0.019 A 
HETATM    8  C7  UNK   900       5.384 -66.397 -50.709  1.00  0.00     0.080 A 
HETATM    9  C8  UNK   900       6.384 -69.894 -47.819  1.00  0.00     0.042 C 
HETATM   10  C9  UNK   900       7.695 -65.934 -51.235  1.00  0.00     0.074 A 
HETATM   11  C10 UNK   900       6.346 -65.884 -51.579  1.00  0.00     0.074 A 
HETATM   12  C11 UNK   900       9.541 -66.532 -49.677  1.00  0.00     0.052 C 
ENDROOT
BRANCH   2  13
HETATM   13  O2  UNK   900       7.807 -66.514 -46.946  1.00  0.00    -0.388 OA
HETATM   14  H12 UNK   900       7.015 -65.951 -46.936  1.00  0.00     0.210 HD
ENDBRANCH   2  13
BRANCH   8  15
HETATM   15  O3  UNK   900       4.073 -66.344 -51.077  1.00  0.00    -0.355 OA
HETATM   16  C12 UNK   900       3.719 -65.390 -52.075  1.00  0.00     0.210 C 
ENDBRANCH   8  15
BRANCH  10  17
HETATM   17  O4  UNK   900       8.618 -65.424 -52.098  1.00  0.00    -0.360 OA
HETATM   18  H13 UNK   900       9.185 -64.792 -51.623  1.00  0.00     0.217 HD
ENDBRANCH  10  17
TORSDOF 3
ENDMDL
MODEL 3
REMARK VINA RESULT:      -5.0     35.093     37.493
REMARK  3 active torsions:
REMARK  status: ('A' for Active; 'I' for Inactive)
REMARK    1  A    between atoms: O2_2  and  C1_5 
REMARK    2  A    between atoms: O3_3  and  C7_11 
REMARK    3  A    between atoms: O4_4  and  C9_13 
ROOT
HETATM    1  O1  UNK   900      23.299 -39.459 -97.184  1.00  0.00    -0.379 OA
HETATM    2  C1  UNK   900      24.169 -41.622 -96.511  1.00  0.00     0.181 C 
HETATM    3  C2  UNK   900      23.800 -40.703 -97.685  1.00  0.00     0.151 C 
HETATM    4  C3  UNK   900      24.987 -40.917 -95.463  1.00  0.00    -0.007 A 
HETATM    5  C4  UNK   900      24.990 -39.514 -95.400  1.00  0.00     0.008 A 
HETATM    6  C5  UNK   900      24.241 -38.702 -96.422  1.00  0.00     0.210 C 
HETATM    7  C6  UNK   900      25.715 -41.653 -94.518  1.00  0.00    -0.019 A 
HETATM    8  C7  UNK   900      25.740 -38.867 -94.408  1.00  0.00     0.080 A 
HETATM    9  C8  UNK   900      24.942 -40.503 -98.682  1.00  0.00     0.042 C 
HETATM   10  C9  UNK   900      26.452 -41.001 -93.531  1.00  0.00     0.074 A 
HETATM   11  C10 UNK   900      26.466 -39.610 -93.477  1.00  0.00     0.074 A 
HETATM   12  C11 UNK   900      25.714 -43.150 -94.545  1.00  0.00     0.052 C 
ENDROOT
BRANCH   2  13
HETATM   13  O2  UNK   900      22.971 -42.066 -95.874  1.00  0.00    -0.388 OA
HETATM   14  H12 UNK   900      22.804 -42.978 -96.165  1.00  0.00     0.210 HD
ENDBRANCH   2  13
BRANCH   8  15
HETATM   15  O3  UNK   900      25.781 -37.507 -94.338  1.00  0.00    -0.355 OA
HETATM   16  C12 UNK   900      27.068 -36.904 -94.223  1.00  0.00     0.210 C 
ENDBRANCH   8  15
BRANCH  10  17
HETATM   17  O4  UNK   900      27.166 -41.707 -92.609  1.00  0.00    -0.360 OA
HETATM   18  H13 UNK   900      28.052 -41.893 -92.965  1.00  0.00     0.217 HD
ENDBRANCH  10  17
TORSDOF 3
ENDMDL
MODEL 4
REMARK VINA RESULT:      -5.0     12.008     13.862
REMARK  3 active torsions:
REMARK  status: ('A' for Active; 'I' for Inactive)
REMARK    1  A    between atoms: O2_2  and  C1_5 
REMARK    2  A    between atoms: O3_3  and  C7_11 
REMARK    3  A    between atoms: O4_4  and  C9_13 
ROOT
HETATM    1  O1  UNK   900      38.111 -38.756 -57.794  1.00  0.00    -0.379 OA
HETATM    2  C1  UNK   900      36.592 -36.868 -57.922  1.00  0.00     0.181 C 
HETATM    3  C2  UNK   900      37.601 -37.748 -58.675  1.00  0.00     0.151 C 
HETATM    4  C3  UNK   900      35.592 -37.678 -57.142  1.00  0.00    -0.007 A 
HETATM    5  C4  UNK   900      35.869 -39.016 -56.818  1.00  0.00     0.008 A 
HETATM    6  C5  UNK   900      37.130 -39.675 -57.310  1.00  0.00     0.210 C 
HETATM    7  C6  UNK   900      34.398 -37.092 -56.696  1.00  0.00    -0.019 A 
HETATM    8  C7  UNK   900      34.940 -39.755 -56.074  1.00  0.00     0.080 A 
HETATM    9  C8  UNK   900      37.043 -38.343 -59.968  1.00  0.00     0.042 C 
HETATM   10  C9  UNK   900      33.483 -37.834 -55.952  1.00  0.00     0.074 A 
HETATM   11  C10 UNK   900      33.753 -39.164 -55.642  1.00  0.00     0.074 A 
HETATM   12  C11 UNK   900      34.083 -35.662 -57.007  1.00  0.00     0.052 C 
ENDROOT
BRANCH   2  13
HETATM   13  O2  UNK   900      37.294 -36.057 -56.981  1.00  0.00    -0.388 OA
HETATM   14  H12 UNK   900      38.030 -36.585 -56.629  1.00  0.00     0.210 HD
ENDBRANCH   2  13
BRANCH   8  15
HETATM   15  O3  UNK   900      35.172 -41.063 -55.766  1.00  0.00    -0.355 OA
HETATM   16  C12 UNK   900      35.899 -41.326 -54.568  1.00  0.00     0.210 C 
ENDBRANCH   8  15
BRANCH  10  17
HETATM   17  O4  UNK   900      32.318 -37.276 -55.516  1.00  0.00    -0.360 OA
HETATM   18  H13 UNK   900      31.604 -37.502 -56.136  1.00  0.00     0.217 HD
ENDBRANCH  10  17
TORSDOF 3
ENDMDL
MODEL 5
REMARK VINA RESULT:      -4.8     42.008     43.154
REMARK  3 active torsions:
REMARK  status: ('A' for Active; 'I' for Inactive)
REMARK    1  A    between atoms: O2_2  and  C1_5 
REMARK    2  A    between atoms: O3_3  and  C7_11 
REMARK    3  A    between atoms: O4_4  and  C9_13 
ROOT
HETATM    1  O1  UNK   900       7.172 -48.298 -95.517  1.00  0.00    -0.379 OA
HETATM    2  C1  UNK   900       9.307 -48.770 -96.567  1.00  0.00     0.181 C 
HETATM    3  C2  UNK   900       7.779 -48.852 -96.690  1.00  0.00     0.151 C 
HETATM    4  C3  UNK   900       9.778 -47.413 -96.118  1.00  0.00    -0.007 A 
HETATM    5  C4  UNK   900       8.886 -46.536 -95.481  1.00  0.00     0.008 A 
HETATM    6  C5  UNK   900       7.439 -46.910 -95.308  1.00  0.00     0.210 C 
HETATM    7  C6  UNK   900      11.116 -47.033 -96.294  1.00  0.00    -0.019 A 
HETATM    8  C7  UNK   900       9.339 -45.282 -95.050  1.00  0.00     0.080 A 
HETATM    9  C8  UNK   900       7.237 -48.218 -97.971  1.00  0.00     0.042 C 
HETATM   10  C9  UNK   900      11.558 -45.786 -95.856  1.00  0.00     0.074 A 
HETATM   11  C10 UNK   900      10.671 -44.911 -95.236  1.00  0.00     0.074 A 
HETATM   12  C11 UNK   900      12.096 -47.955 -96.951  1.00  0.00     0.052 C 
ENDROOT
BRANCH   2  13
HETATM   13  O2  UNK   900       9.745 -49.708 -95.584  1.00  0.00    -0.388 OA
HETATM   14  H12 UNK   900       9.997 -49.206 -94.791  1.00  0.00     0.210 HD
ENDBRANCH   2  13
BRANCH   8  15
HETATM   15  O3  UNK   900       8.490 -44.400 -94.450  1.00  0.00    -0.355 OA
HETATM   16  C12 UNK   900       9.052 -43.172 -93.991  1.00  0.00     0.210 C 
ENDBRANCH   8  15
BRANCH  10  17
HETATM   17  O4  UNK   900      12.856 -45.404 -96.024  1.00  0.00    -0.360 OA
HETATM   18  H13 UNK   900      13.425 -46.193 -96.016  1.00  0.00     0.217 HD
ENDBRANCH  10  17
TORSDOF 3
ENDMDL
MODEL 6
REMARK VINA RESULT:      -4.8     35.494     38.159
REMARK  3 active torsions:
REMARK  status: ('A' for Active; 'I' for Inactive)
REMARK    1  A    between atoms: O2_2  and  C1_5 
REMARK    2  A    between atoms: O3_3  and  C7_11 
REMARK    3  A    between atoms: O4_4  and  C9_13 
ROOT
HETATM    1  O1  UNK   900      24.088 -40.957 -97.768  1.00  0.00    -0.379 OA
HETATM    2  C1  UNK   900      25.208 -41.586 -95.709  1.00  0.00     0.181 C 
HETATM    3  C2  UNK   900      25.093 -41.819 -97.223  1.00  0.00     0.151 C 
HETATM    4  C3  UNK   900      25.281 -40.125 -95.354  1.00  0.00    -0.007 A 
HETATM    5  C4  UNK   900      24.842 -39.157 -96.272  1.00  0.00     0.008 A 
HETATM    6  C5  UNK   900      24.369 -39.562 -97.642  1.00  0.00     0.210 C 
HETATM    7  C6  UNK   900      25.744 -39.724 -94.094  1.00  0.00    -0.019 A 
HETATM    8  C7  UNK   900      24.896 -37.800 -95.925  1.00  0.00     0.080 A 
HETATM    9  C8  UNK   900      26.426 -41.686 -97.960  1.00  0.00     0.042 C 
HETATM   10  C9  UNK   900      25.788 -38.373 -93.755  1.00  0.00     0.074 A 
HETATM   11  C10 UNK   900      25.366 -37.412 -94.670  1.00  0.00     0.074 A 
HETATM   12  C11 UNK   900      26.198 -40.734 -93.085  1.00  0.00     0.052 C 
ENDROOT
BRANCH   2  13
HETATM   13  O2  UNK   900      24.045 -42.112 -95.069  1.00  0.00    -0.388 OA
HETATM   14  H12 UNK   900      24.103 -43.081 -95.105  1.00  0.00     0.210 HD
ENDBRANCH   2  13
BRANCH   8  15
HETATM   15  O3  UNK   900      24.501 -36.837 -96.804  1.00  0.00    -0.355 OA
HETATM   16  C12 UNK   900      25.398 -35.750 -97.021  1.00  0.00     0.210 C 
ENDBRANCH   8  15
BRANCH  10  17
HETATM   17  O4  UNK   900      26.240 -37.971 -92.534  1.00  0.00    -0.360 OA
HETATM   18  H13 UNK   900      25.495 -37.951 -91.908  1.00  0.00     0.217 HD
ENDBRANCH  10  17
TORSDOF 3
ENDMDL
MODEL 7
REMARK VINA RESULT:      -4.6     35.509     37.533
REMARK  3 active torsions:
REMARK  status: ('A' for Active; 'I' for Inactive)
REMARK    1  A    between atoms: O2_2  and  C1_5 
REMARK    2  A    between atoms: O3_3  and  C7_11 
REMARK    3  A    between atoms: O4_4  and  C9_13 
ROOT
HETATM    1  O1  UNK   900      28.256 -38.373 -93.084  1.00  0.00    -0.379 OA
HETATM    2  C1  UNK   900      27.179 -37.084 -94.835  1.00  0.00     0.181 C 
HETATM    3  C2  UNK   900      28.507 -37.471 -94.167  1.00  0.00     0.151 C 
HETATM    4  C3  UNK   900      26.306 -38.278 -95.115  1.00  0.00    -0.007 A 
HETATM    5  C4  UNK   900      26.525 -39.484 -94.431  1.00  0.00     0.008 A 
HETATM    6  C5  UNK   900      27.676 -39.620 -93.471  1.00  0.00     0.210 C 
HETATM    7  C6  UNK   900      25.245 -38.182 -96.027  1.00  0.00    -0.019 A 
HETATM    8  C7  UNK   900      25.695 -40.584 -94.686  1.00  0.00     0.080 A 
HETATM    9  C8  UNK   900      29.542 -38.022 -95.147  1.00  0.00     0.042 C 
HETATM   10  C9  UNK   900      24.421 -39.280 -96.268  1.00  0.00     0.074 A 
HETATM   11  C10 UNK   900      24.646 -40.480 -95.599  1.00  0.00     0.074 A 
HETATM   12  C11 UNK   900      24.973 -36.903 -96.755  1.00  0.00     0.052 C 
ENDROOT
BRANCH   2  13
HETATM   13  O2  UNK   900      26.447 -36.232 -93.954  1.00  0.00    -0.388 OA
HETATM   14  H12 UNK   900      27.092 -35.718 -93.440  1.00  0.00     0.210 HD
ENDBRANCH   2  13
BRANCH   8  15
HETATM   15  O3  UNK   900      25.899 -41.776 -94.055  1.00  0.00    -0.355 OA
HETATM   16  C12 UNK   900      25.805 -42.954 -94.851  1.00  0.00     0.210 C 
ENDBRANCH   8  15
BRANCH  10  17
HETATM   17  O4  UNK   900      23.388 -39.199 -97.154  1.00  0.00    -0.360 OA
HETATM   18  H13 UNK   900      23.256 -38.269 -97.406  1.00  0.00     0.217 HD
ENDBRANCH  10  17
TORSDOF 3
ENDMDL
MODEL 8
REMARK VINA RESULT:      -4.6     49.300     51.607
REMARK  3 active torsions:
REMARK  status: ('A' for Active; 'I' for Inactive)
REMARK    1  A    between atoms: O2_2  and  C1_5 
REMARK    2  A    between atoms: O3_3  and  C7_11 
REMARK    3  A    between atoms: O4_4  and  C9_13 
ROOT
HETATM    1  O1  UNK   900      -5.376 -88.089 -63.124  1.00  0.00    -0.379 OA
HETATM    2  C1  UNK   900      -3.124 -87.188 -63.027  1.00  0.00     0.181 C 
HETATM    3  C2  UNK   900      -4.095 -88.124 -63.763  1.00  0.00     0.151 C 
HETATM    4  C3  UNK   900      -3.725 -85.836 -62.753  1.00  0.00    -0.007 A 
HETATM    5  C4  UNK   900      -5.119 -85.668 -62.778  1.00  0.00     0.008 A 
HETATM    6  C5  UNK   900      -6.020 -86.814 -63.153  1.00  0.00     0.210 C 
HETATM    7  C6  UNK   900      -2.903 -84.747 -62.429  1.00  0.00    -0.019 A 
HETATM    8  C7  UNK   900      -5.670 -84.410 -62.503  1.00  0.00     0.080 A 
HETATM    9  C8  UNK   900      -4.192 -87.842 -65.262  1.00  0.00     0.042 C 
HETATM   10  C9  UNK   900      -3.461 -83.501 -62.150  1.00  0.00     0.074 A 
HETATM   11  C10 UNK   900      -4.842 -83.331 -62.188  1.00  0.00     0.074 A 
HETATM   12  C11 UNK   900      -1.415 -84.900 -62.372  1.00  0.00     0.052 C 
ENDROOT
BRANCH   2  13
HETATM   13  O2  UNK   900      -2.796 -87.761 -61.762  1.00  0.00    -0.388 OA
HETATM   14  H12 UNK   900      -3.273 -87.260 -61.079  1.00  0.00     0.210 HD
ENDBRANCH   2  13
BRANCH   8  15
HETATM   15  O3  UNK   900      -7.018 -84.211 -62.544  1.00  0.00    -0.355 OA
HETATM   16  C12 UNK   900      -7.509 -82.989 -61.999  1.00  0.00     0.210 C 
ENDBRANCH   8  15
BRANCH  10  17
HETATM   17  O4  UNK   900      -2.671 -82.435 -61.836  1.00  0.00    -0.360 OA
HETATM   18  H13 UNK   900      -2.971 -82.053 -60.993  1.00  0.00     0.217 HD
ENDBRANCH  10  17
TORSDOF 3
ENDMDL
MODEL 9
REMARK VINA RESULT:      -4.5      4.973      8.316
REMARK  3 active torsions:
REMARK  status: ('A' for Active; 'I' for Inactive)
REMARK    1  A    between atoms: O2_2  and  C1_5 
REMARK    2  A    between atoms: O3_3  and  C7_11 
REMARK    3  A    between atoms: O4_4  and  C9_13 
ROOT
HETATM    1  O1  UNK   900      31.899 -47.753 -62.368  1.00  0.00    -0.379 OA
HETATM    2  C1  UNK   900      32.681 -45.459 -62.492  1.00  0.00     0.181 C 
HETATM    3  C2  UNK   900      33.044 -46.916 -62.169  1.00  0.00     0.151 C 
HETATM    4  C3  UNK   900      31.942 -45.325 -63.796  1.00  0.00    -0.007 A 
HETATM    5  C4  UNK   900      31.306 -46.442 -64.362  1.00  0.00     0.008 A 
HETATM    6  C5  UNK   900      31.420 -47.795 -63.713  1.00  0.00     0.210 C 
HETATM    7  C6  UNK   900      31.847 -44.079 -64.432  1.00  0.00    -0.019 A 
HETATM    8  C7  UNK   900      30.605 -46.303 -65.567  1.00  0.00     0.080 A 
HETATM    9  C8  UNK   900      34.266 -47.421 -62.936  1.00  0.00     0.042 C 
HETATM   10  C9  UNK   900      31.142 -43.949 -65.627  1.00  0.00     0.074 A 
HETATM   11  C10 UNK   900      30.522 -45.060 -66.195  1.00  0.00     0.074 A 
HETATM   12  C11 UNK   900      32.495 -42.865 -63.843  1.00  0.00     0.052 C 
ENDROOT
BRANCH   2  13
HETATM   13  O2  UNK   900      31.817 -44.959 -61.471  1.00  0.00    -0.388 OA
HETATM   14  H12 UNK   900      31.954 -43.999 -61.415  1.00  0.00     0.210 HD
ENDBRANCH   2  13
BRANCH   8  15
HETATM   15  O3  UNK   900      29.999 -47.374 -66.152  1.00  0.00    -0.355 OA
HETATM   16  C12 UNK   900      29.049 -47.100 -67.179  1.00  0.00     0.210 C 
ENDBRANCH   8  15
BRANCH  10  17
HETATM   17  O4  UNK   900      31.045 -42.744 -66.256  1.00  0.00    -0.360 OA
HETATM   18  H13 UNK   900      30.157 -42.376 -66.106  1.00  0.00     0.217 HD
ENDBRANCH  10  17
TORSDOF 3
ENDMDL
