MODEL 1
REMARK VINA RESULT:      -6.7      0.000      0.000
REMARK  2 active torsions:
REMARK  status: ('A' for Active; 'I' for Inactive)
REMARK    1  A    between atoms: O3_3  and  C6_12 
REMARK    2  A    between atoms: O4_4  and  C5_11 
ROOT
HETATM    1  O1  UNK   900      32.597 -47.946 -62.310  1.00  0.00    -0.373 OA
HETATM    2  O2  UNK   900      29.928 -46.282 -62.322  1.00  0.00    -0.280 OA
HETATM    3  O5  UNK   900      31.155 -45.934 -60.490  1.00  0.00    -0.264 OA
HETATM    4  O6  UNK   900      32.148 -47.924 -57.770  1.00  0.00    -0.295 OA
HETATM    5  C1  UNK   900      30.534 -48.417 -61.149  1.00  0.00     0.117 C 
HETATM    6  C2  UNK   900      31.610 -49.658 -61.117  1.00  0.00     0.035 C 
HETATM    7  C3  UNK   900      31.197 -48.164 -62.580  1.00  0.00     0.206 C 
HETATM    8  C4  UNK   900      32.901 -48.878 -61.241  1.00  0.00     0.134 C 
HETATM    9  C5  UNK   900      30.558 -48.199 -59.578  1.00  0.00     0.209 C 
HETATM   10  C6  UNK   900      30.424 -47.098 -63.341  1.00  0.00     0.196 C 
HETATM   11  C7  UNK   900      33.191 -48.133 -59.933  1.00  0.00     0.113 C 
HETATM   12  C8  UNK   900      30.596 -46.738 -61.229  1.00  0.00     0.276 C 
HETATM   13  C9  UNK   900      31.984 -48.076 -58.982  1.00  0.00     0.159 C 
HETATM   14  C10 UNK   900      31.644 -50.801 -60.086  1.00  0.00     0.014 C 
HETATM   15  C11 UNK   900      31.278 -46.296 -64.312  1.00  0.00     0.082 C 
ENDROOT
BRANCH  10  16
HETATM   16  O3  UNK   900      29.339 -47.716 -64.033  1.00  0.00    -0.358 OA
HETATM   17  C12 UNK   900      28.968 -46.970 -65.182  1.00  0.00     0.205 C 
ENDBRANCH  10  16
BRANCH   9  18
HETATM   18  O4  UNK   900      29.812 -49.232 -58.937  1.00  0.00    -0.387 OA
HETATM   19  H13 UNK   900      29.205 -49.609 -59.597  1.00  0.00     0.210 HD
ENDBRANCH   9  18
TORSDOF 2
ENDMDL
MODEL 2
REMARK VINA RESULT:      -6.4     12.800     14.065
REMARK  2 active torsions:
REMARK  status: ('A' for Active; 'I' for Inactive)
REMARK    1  A    between atoms: O3_3  and  C6_12 
REMARK    2  A    between atoms: O4_4  and  C5_11 
ROOT
HETATM    1  O1  UNK   900      36.636 -34.460 -57.597  1.00  0.00    -0.373 OA
HETATM    2  O2  UNK   900      34.586 -32.975 -59.463  1.00  0.00    -0.280 OA
HETATM    3  O5  UNK   900      33.645 -33.757 -57.596  1.00  0.00    -0.264 OA
HETATM    4  O6  UNK   900      33.055 -36.964 -56.287  1.00  0.00    -0.295 OA
HETATM    5  C1  UNK   900      35.026 -35.421 -59.116  1.00  0.00     0.117 C 
HETATM    6  C2  UNK   900      36.105 -36.508 -58.521  1.00  0.00     0.035 C 
HETATM    7  C3  UNK   900      36.277 -34.436 -58.994  1.00  0.00     0.206 C 
HETATM    8  C4  UNK   900      36.435 -35.841 -57.203  1.00  0.00     0.134 C 
HETATM    9  C5  UNK   900      33.770 -36.121 -58.443  1.00  0.00     0.209 C 
HETATM   10  C6  UNK   900      35.964 -33.100 -59.647  1.00  0.00     0.196 C 
HETATM   11  C7  UNK   900      35.249 -35.966 -56.239  1.00  0.00     0.113 C 
HETATM   12  C8  UNK   900      34.312 -33.988 -58.600  1.00  0.00     0.276 C 
HETATM   13  C9  UNK   900      33.946 -36.406 -56.929  1.00  0.00     0.159 C 
HETATM   14  C10 UNK   900      35.904 -38.032 -58.439  1.00  0.00     0.014 C 
HETATM   15  C11 UNK   900      36.704 -31.924 -59.024  1.00  0.00     0.082 C 
ENDROOT
BRANCH  10  16
HETATM   16  O3  UNK   900      36.259 -33.183 -61.041  1.00  0.00    -0.358 OA
HETATM   17  C12 UNK   900      37.569 -33.680 -61.263  1.00  0.00     0.205 C 
ENDBRANCH  10  16
BRANCH   9  18
HETATM   18  O4  UNK   900      33.438 -37.306 -59.163  1.00  0.00    -0.387 OA
HETATM   19  H13 UNK   900      32.786 -37.798 -58.635  1.00  0.00     0.210 HD
ENDBRANCH   9  18
TORSDOF 2
ENDMDL
MODEL 3
REMARK VINA RESULT:      -5.8     31.851     33.496
REMARK  2 active torsions:
REMARK  status: ('A' for Active; 'I' for Inactive)
REMARK    1  A    between atoms: O3_3  and  C6_12 
REMARK    2  A    between atoms: O4_4  and  C5_11 
ROOT
HETATM    1  O1  UNK   900       6.781 -68.766 -50.319  1.00  0.00    -0.373 OA
HETATM    2  O2  UNK   900       8.173 -66.156 -49.251  1.00  0.00    -0.280 OA
HETATM    3  O5  UNK   900       9.613 -67.584 -50.184  1.00  0.00    -0.264 OA
HETATM    4  O6  UNK   900      10.751 -70.812 -49.392  1.00  0.00    -0.295 OA
HETATM    5  C1  UNK   900       8.016 -68.461 -48.268  1.00  0.00     0.117 C 
HETATM    6  C2  UNK   900       7.207 -69.889 -48.347  1.00  0.00     0.035 C 
HETATM    7  C3  UNK   900       6.769 -67.954 -49.127  1.00  0.00     0.206 C 
HETATM    8  C4  UNK   900       7.176 -70.080 -49.848  1.00  0.00     0.134 C 
HETATM    9  C5  UNK   900       9.450 -69.140 -48.216  1.00  0.00     0.209 C 
HETATM   10  C6  UNK   900       6.806 -66.441 -49.272  1.00  0.00     0.196 C 
HETATM   11  C7  UNK   900       8.575 -70.445 -50.360  1.00  0.00     0.113 C 
HETATM   12  C8  UNK   900       8.732 -67.392 -49.353  1.00  0.00     0.276 C 
HETATM   13  C9  UNK   900       9.687 -70.194 -49.328  1.00  0.00     0.159 C 
HETATM   14  C10 UNK   900       7.534 -71.160 -47.542  1.00  0.00     0.014 C 
HETATM   15  C11 UNK   900       6.165 -65.932 -50.556  1.00  0.00     0.082 C 
ENDROOT
BRANCH  10  16
HETATM   16  O3  UNK   900       6.173 -65.850 -48.138  1.00  0.00    -0.358 OA
HETATM   17  C12 UNK   900       4.984 -66.542 -47.791  1.00  0.00     0.205 C 
ENDBRANCH  10  16
BRANCH   9  18
HETATM   18  O4  UNK   900       9.675 -69.689 -46.919  1.00  0.00    -0.387 OA
HETATM   19  H13 UNK   900       9.488 -70.643 -46.967  1.00  0.00     0.210 HD
ENDBRANCH   9  18
TORSDOF 2
ENDMDL
MODEL 4
REMARK VINA RESULT:      -5.8     31.640     33.559
REMARK  2 active torsions:
REMARK  status: ('A' for Active; 'I' for Inactive)
REMARK    1  A    between atoms: O3_3  and  C6_12 
REMARK    2  A    between atoms: O4_4  and  C5_11 
ROOT
HETATM    1  O1  UNK   900       7.341 -69.804 -50.681  1.00  0.00    -0.373 OA
HETATM    2  O2  UNK   900       5.682 -67.952 -52.607  1.00  0.00    -0.280 OA
HETATM    3  O5  UNK   900       7.772 -67.229 -52.301  1.00  0.00    -0.264 OA
HETATM    4  O6  UNK   900       9.576 -65.991 -49.552  1.00  0.00    -0.295 OA
HETATM    5  C1  UNK   900       6.267 -67.702 -50.180  1.00  0.00     0.117 C 
HETATM    6  C2  UNK   900       6.803 -68.505 -48.850  1.00  0.00     0.035 C 
HETATM    7  C3  UNK   900       6.038 -69.187 -50.719  1.00  0.00     0.206 C 
HETATM    8  C4  UNK   900       7.943 -69.285 -49.468  1.00  0.00     0.134 C 
HETATM    9  C5  UNK   900       7.236 -66.463 -49.968  1.00  0.00     0.209 C 
HETATM   10  C6  UNK   900       5.278 -69.161 -52.036  1.00  0.00     0.196 C 
HETATM   11  C7  UNK   900       9.107 -68.343 -49.797  1.00  0.00     0.113 C 
HETATM   12  C8  UNK   900       6.707 -67.573 -51.798  1.00  0.00     0.276 C 
HETATM   13  C9  UNK   900       8.720 -66.855 -49.749  1.00  0.00     0.159 C 
HETATM   14  C10 UNK   900       7.119 -67.878 -47.480  1.00  0.00     0.014 C 
HETATM   15  C11 UNK   900       5.602 -70.331 -52.954  1.00  0.00     0.082 C 
ENDROOT
BRANCH  10  16
HETATM   16  O3  UNK   900       3.878 -69.121 -51.764  1.00  0.00    -0.358 OA
HETATM   17  C12 UNK   900       3.142 -69.842 -52.740  1.00  0.00     0.205 C 
ENDBRANCH  10  16
BRANCH   9  18
HETATM   18  O4  UNK   900       6.749 -65.648 -48.903  1.00  0.00    -0.387 OA
HETATM   19  H13 UNK   900       6.328 -64.866 -49.298  1.00  0.00     0.210 HD
ENDBRANCH   9  18
TORSDOF 2
ENDMDL
MODEL 5
REMARK VINA RESULT:      -5.6     12.889     14.506
REMARK  2 active torsions:
REMARK  status: ('A' for Active; 'I' for Inactive)
REMARK    1  A    between atoms: O3_3  and  C6_12 
REMARK    2  A    between atoms: O4_4  and  C5_11 
ROOT
HETATM    1  O1  UNK   900      35.831 -34.834 -57.109  1.00  0.00    -0.373 OA
HETATM    2  O2  UNK   900      34.331 -36.844 -59.006  1.00  0.00    -0.280 OA
HETATM    3  O5  UNK   900      36.536 -36.812 -59.352  1.00  0.00    -0.264 OA
HETATM    4  O6  UNK   900      38.813 -34.413 -60.536  1.00  0.00    -0.295 OA
HETATM    5  C1  UNK   900      35.206 -34.529 -59.420  1.00  0.00     0.117 C 
HETATM    6  C2  UNK   900      35.730 -33.154 -58.689  1.00  0.00     0.035 C 
HETATM    7  C3  UNK   900      34.661 -34.845 -57.953  1.00  0.00     0.206 C 
HETATM    8  C4  UNK   900      36.642 -33.756 -57.641  1.00  0.00     0.134 C 
HETATM    9  C5  UNK   900      36.396 -34.565 -60.470  1.00  0.00     0.209 C 
HETATM   10  C6  UNK   900      33.783 -36.086 -57.970  1.00  0.00     0.196 C 
HETATM   11  C7  UNK   900      37.912 -34.303 -58.303  1.00  0.00     0.113 C 
HETATM   12  C8  UNK   900      35.486 -36.181 -59.276  1.00  0.00     0.276 C 
HETATM   13  C9  UNK   900      37.802 -34.421 -59.832  1.00  0.00     0.159 C 
HETATM   14  C10 UNK   900      36.296 -31.910 -59.398  1.00  0.00     0.014 C 
HETATM   15  C11 UNK   900      33.795 -36.864 -56.662  1.00  0.00     0.082 C 
ENDROOT
BRANCH  10  16
HETATM   16  O3  UNK   900      32.448 -35.706 -58.305  1.00  0.00    -0.358 OA
HETATM   17  C12 UNK   900      31.535 -36.765 -58.065  1.00  0.00     0.205 C 
ENDBRANCH  10  16
BRANCH   9  18
HETATM   18  O4  UNK   900      36.176 -33.581 -61.479  1.00  0.00    -0.387 OA
HETATM   19  H13 UNK   900      36.821 -33.739 -62.189  1.00  0.00     0.210 HD
ENDBRANCH   9  18
TORSDOF 2
ENDMDL
MODEL 6
REMARK VINA RESULT:      -5.5     11.104     12.372
REMARK  2 active torsions:
REMARK  status: ('A' for Active; 'I' for Inactive)
REMARK    1  A    between atoms: O3_3  and  C6_12 
REMARK    2  A    between atoms: O4_4  and  C5_11 
ROOT
HETATM    1  O1  UNK   900      36.343 -36.072 -57.706  1.00  0.00    -0.373 OA
HETATM    2  O2  UNK   900      33.555 -36.511 -56.318  1.00  0.00    -0.280 OA
HETATM    3  O5  UNK   900      35.264 -36.657 -54.889  1.00  0.00    -0.264 OA
HETATM    4  O6  UNK   900      37.962 -38.871 -54.488  1.00  0.00    -0.295 OA
HETATM    5  C1  UNK   900      35.299 -38.153 -57.069  1.00  0.00     0.117 C 
HETATM    6  C2  UNK   900      36.629 -38.342 -58.016  1.00  0.00     0.035 C 
HETATM    7  C3  UNK   900      35.134 -36.824 -57.939  1.00  0.00     0.206 C 
HETATM    8  C4  UNK   900      37.383 -37.082 -57.648  1.00  0.00     0.134 C 
HETATM    9  C5  UNK   900      35.938 -38.894 -55.819  1.00  0.00     0.209 C 
HETATM   10  C6  UNK   900      33.795 -36.164 -57.650  1.00  0.00     0.196 C 
HETATM   11  C7  UNK   900      37.948 -37.203 -56.228  1.00  0.00     0.113 C 
HETATM   12  C8  UNK   900      34.747 -37.041 -55.934  1.00  0.00     0.276 C 
HETATM   13  C9  UNK   900      37.344 -38.370 -55.429  1.00  0.00     0.159 C 
HETATM   14  C10 UNK   900      37.498 -39.609 -58.112  1.00  0.00     0.014 C 
HETATM   15  C11 UNK   900      33.806 -34.652 -57.824  1.00  0.00     0.082 C 
ENDROOT
BRANCH  10  16
HETATM   16  O3  UNK   900      32.799 -36.749 -58.487  1.00  0.00    -0.358 OA
HETATM   17  C12 UNK   900      31.492 -36.469 -58.008  1.00  0.00     0.205 C 
ENDBRANCH  10  16
BRANCH   9  18
HETATM   18  O4  UNK   900      35.950 -40.301 -56.050  1.00  0.00    -0.387 OA
HETATM   19  H13 UNK   900      35.088 -40.653 -55.769  1.00  0.00     0.210 HD
ENDBRANCH   9  18
TORSDOF 2
ENDMDL
MODEL 7
REMARK VINA RESULT:      -5.3     39.321     40.885
REMARK  2 active torsions:
REMARK  status: ('A' for Active; 'I' for Inactive)
REMARK    1  A    between atoms: O3_3  and  C6_12 
REMARK    2  A    between atoms: O4_4  and  C5_11 
ROOT
HETATM    1  O1  UNK   900       9.713 -44.865 -97.448  1.00  0.00    -0.373 OA
HETATM    2  O2  UNK   900      10.907 -44.750 -94.541  1.00  0.00    -0.280 OA
HETATM    3  O5  UNK   900      12.186 -45.911 -95.955  1.00  0.00    -0.264 OA
HETATM    4  O6  UNK   900      11.797 -48.913 -97.739  1.00  0.00    -0.295 OA
HETATM    5  C1  UNK   900       9.633 -46.557 -95.729  1.00  0.00     0.117 C 
HETATM    6  C2  UNK   900       8.662 -46.874 -97.016  1.00  0.00     0.035 C 
HETATM    7  C3  UNK   900       9.257 -45.048 -96.092  1.00  0.00     0.206 C 
HETATM    8  C4  UNK   900       9.420 -46.130 -98.095  1.00  0.00     0.134 C 
HETATM    9  C5  UNK   900      10.558 -47.825 -95.963  1.00  0.00     0.209 C 
HETATM   10  C6  UNK   900       9.764 -44.102 -95.015  1.00  0.00     0.196 C 
HETATM   11  C7  UNK   900      10.712 -46.878 -98.441  1.00  0.00     0.113 C 
HETATM   12  C8  UNK   900      11.080 -45.745 -95.451  1.00  0.00     0.276 C 
HETATM   13  C9  UNK   900      11.085 -47.961 -97.415  1.00  0.00     0.159 C 
HETATM   14  C10 UNK   900       8.140 -48.261 -97.436  1.00  0.00     0.014 C 
HETATM   15  C11 UNK   900      10.104 -42.711 -95.531  1.00  0.00     0.082 C 
ENDROOT
BRANCH  10  16
HETATM   16  O3  UNK   900       8.791 -44.018 -93.975  1.00  0.00    -0.358 OA
HETATM   17  C12 UNK   900       8.799 -42.738 -93.363  1.00  0.00     0.205 C 
ENDBRANCH  10  16
BRANCH   9  18
HETATM   18  O4  UNK   900       9.872 -49.004 -95.544  1.00  0.00    -0.387 OA
HETATM   19  H13 UNK   900       8.923 -48.795 -95.506  1.00  0.00     0.210 HD
ENDBRANCH   9  18
TORSDOF 2
ENDMDL
MODEL 8
REMARK VINA RESULT:      -5.2     15.202     16.496
REMARK  2 active torsions:
REMARK  status: ('A' for Active; 'I' for Inactive)
REMARK    1  A    between atoms: O3_3  and  C6_12 
REMARK    2  A    between atoms: O4_4  and  C5_11 
ROOT
HETATM    1  O1  UNK   900      37.511 -31.815 -58.601  1.00  0.00    -0.373 OA
HETATM    2  O2  UNK   900      34.642 -30.633 -59.112  1.00  0.00    -0.280 OA
HETATM    3  O5  UNK   900      34.679 -32.124 -57.450  1.00  0.00    -0.264 OA
HETATM    4  O6  UNK   900      35.310 -35.574 -57.245  1.00  0.00    -0.295 OA
HETATM    5  C1  UNK   900      35.671 -32.815 -59.801  1.00  0.00     0.117 C 
HETATM    6  C2  UNK   900      37.094 -33.617 -59.982  1.00  0.00     0.035 C 
HETATM    7  C3  UNK   900      36.642 -31.550 -59.721  1.00  0.00     0.206 C 
HETATM    8  C4  UNK   900      37.765 -33.240 -58.678  1.00  0.00     0.134 C 
HETATM    9  C5  UNK   900      34.946 -34.025 -59.073  1.00  0.00     0.209 C 
HETATM   10  C6  UNK   900      35.835 -30.262 -59.734  1.00  0.00     0.196 C 
HETATM   11  C7  UNK   900      37.097 -33.978 -57.512  1.00  0.00     0.113 C 
HETATM   12  C8  UNK   900      34.937 -31.866 -58.622  1.00  0.00     0.276 C 
HETATM   13  C9  UNK   900      35.749 -34.617 -57.885  1.00  0.00     0.159 C 
HETATM   14  C10 UNK   900      37.257 -35.093 -60.387  1.00  0.00     0.014 C 
HETATM   15  C11 UNK   900      36.502 -29.113 -58.989  1.00  0.00     0.082 C 
ENDROOT
BRANCH  10  16
HETATM   16  O3  UNK   900      35.577 -29.888 -61.087  1.00  0.00    -0.358 OA
HETATM   17  C12 UNK   900      36.780 -29.795 -61.835  1.00  0.00     0.205 C 
ENDBRANCH  10  16
BRANCH   9  18
HETATM   18  O4  UNK   900      34.611 -35.029 -60.029  1.00  0.00    -0.387 OA
HETATM   19  H13 UNK   900      35.363 -35.119 -60.639  1.00  0.00     0.210 HD
ENDBRANCH   9  18
TORSDOF 2
ENDMDL
MODEL 9
REMARK VINA RESULT:      -5.2      2.027      4.763
REMARK  2 active torsions:
REMARK  status: ('A' for Active; 'I' for Inactive)
REMARK    1  A    between atoms: O3_3  and  C6_12 
REMARK    2  A    between atoms: O4_4  and  C5_11 
ROOT
HETATM    1  O1  UNK   900      33.622 -47.108 -60.944  1.00  0.00    -0.373 OA
HETATM    2  O2  UNK   900      32.156 -49.778 -60.161  1.00  0.00    -0.280 OA
HETATM    3  O5  UNK   900      33.799 -50.095 -61.639  1.00  0.00    -0.264 OA
HETATM    4  O6  UNK   900      34.340 -49.124 -64.972  1.00  0.00    -0.295 OA
HETATM    5  C1  UNK   900      31.931 -48.305 -62.181  1.00  0.00     0.117 C 
HETATM    6  C2  UNK   900      32.256 -46.810 -62.781  1.00  0.00     0.035 C 
HETATM    7  C3  UNK   900      32.270 -47.587 -60.796  1.00  0.00     0.206 C 
HETATM    8  C4  UNK   900      33.691 -46.660 -62.321  1.00  0.00     0.134 C 
HETATM    9  C5  UNK   900      32.432 -49.065 -63.481  1.00  0.00     0.209 C 
HETATM   10  C6  UNK   900      31.942 -48.505 -59.629  1.00  0.00     0.196 C 
HETATM   11  C7  UNK   900      34.605 -47.572 -63.147  1.00  0.00     0.113 C 
HETATM   12  C8  UNK   900      32.766 -49.502 -61.345  1.00  0.00     0.276 C 
HETATM   13  C9  UNK   900      33.839 -48.628 -63.962  1.00  0.00     0.159 C 
HETATM   14  C10 UNK   900      31.987 -46.334 -64.220  1.00  0.00     0.014 C 
HETATM   15  C11 UNK   900      32.815 -48.275 -58.403  1.00  0.00     0.082 C 
ENDROOT
BRANCH  10  16
HETATM   16  O3  UNK   900      30.565 -48.350 -59.289  1.00  0.00    -0.358 OA
HETATM   17  C12 UNK   900      29.950 -49.606 -59.044  1.00  0.00     0.205 C 
ENDBRANCH  10  16
BRANCH   9  18
HETATM   18  O4  UNK   900      31.461 -48.935 -64.518  1.00  0.00    -0.387 OA
HETATM   19  H13 UNK   900      31.939 -48.792 -65.352  1.00  0.00     0.210 HD
ENDBRANCH   9  18
TORSDOF 2
ENDMDL
