MODEL 1
REMARK VINA RESULT:      -5.9      0.000      0.000
REMARK  2 active torsions:
REMARK  status: ('A' for Active; 'I' for Inactive)
REMARK    1  A    between atoms: O2_2  and  C6_11 
REMARK    2  A    between atoms: O4_4  and  C7_12 
ROOT
HETATM    1  O1  UNK   900       7.250 -50.119 -74.007  1.00  0.00    -0.274 OA
HETATM    2  O3  UNK   900       8.654 -53.839 -73.830  1.00  0.00    -0.286 OA
HETATM    3  O5  UNK   900       5.543 -50.403 -75.496  1.00  0.00    -0.259 OA
HETATM    4  C1  UNK   900       8.468 -52.384 -75.655  1.00  0.00     0.065 A 
HETATM    5  C2  UNK   900       9.124 -51.593 -73.357  1.00  0.00     0.082 A 
HETATM    6  C3  UNK   900       7.593 -51.385 -76.080  1.00  0.00     0.056 A 
HETATM    7  C4  UNK   900       8.703 -52.686 -74.238  1.00  0.00     0.201 C 
HETATM    8  C5  UNK   900       8.468 -50.370 -73.326  1.00  0.00     0.096 A 
HETATM    9  C6  UNK   900       9.184 -53.141 -76.592  1.00  0.00     0.083 A 
HETATM   10  C7  UNK   900      10.241 -51.797 -72.539  1.00  0.00     0.082 A 
HETATM   11  C8  UNK   900       7.444 -51.145 -77.455  1.00  0.00     0.019 A 
HETATM   12  C9  UNK   900       6.704 -50.633 -75.179  1.00  0.00     0.299 C 
HETATM   13  C10 UNK   900       9.036 -52.890 -77.955  1.00  0.00     0.038 A 
HETATM   14  C11 UNK   900       8.912 -49.343 -72.490  1.00  0.00     0.038 A 
HETATM   15  C12 UNK   900       8.169 -51.889 -78.386  1.00  0.00     0.004 A 
HETATM   16  C13 UNK   900      10.697 -50.770 -71.712  1.00  0.00     0.037 A 
HETATM   17  C14 UNK   900      10.034 -49.542 -71.689  1.00  0.00     0.006 A 
ENDROOT
BRANCH   9  18
HETATM   18  O2  UNK   900      10.055 -54.134 -76.259  1.00  0.00    -0.355 OA
HETATM   19  C15 UNK   900      11.297 -54.161 -76.958  1.00  0.00     0.210 C 
ENDBRANCH   9  18
BRANCH  10  20
HETATM   20  O4  UNK   900      10.949 -52.962 -72.533  1.00  0.00    -0.360 OA
HETATM   21  H7  UNK   900      10.347 -53.723 -72.527  1.00  0.00     0.217 HD
ENDBRANCH  10  20
TORSDOF 2
ENDMDL
MODEL 2
REMARK VINA RESULT:      -5.8     17.984     19.526
REMARK  2 active torsions:
REMARK  status: ('A' for Active; 'I' for Inactive)
REMARK    1  A    between atoms: O2_2  and  C6_11 
REMARK    2  A    between atoms: O4_4  and  C7_12 
ROOT
HETATM    1  O1  UNK   900       4.668 -66.405 -61.377  1.00  0.00    -0.274 OA
HETATM    2  O3  UNK   900       3.789 -63.096 -63.407  1.00  0.00    -0.286 OA
HETATM    3  O5  UNK   900       3.717 -67.975 -62.734  1.00  0.00    -0.259 OA
HETATM    4  C1  UNK   900       2.375 -64.714 -62.476  1.00  0.00     0.065 A 
HETATM    5  C2  UNK   900       4.481 -63.941 -61.335  1.00  0.00     0.082 A 
HETATM    6  C3  UNK   900       2.401 -66.090 -62.259  1.00  0.00     0.056 A 
HETATM    7  C4  UNK   900       3.588 -63.888 -62.496  1.00  0.00     0.201 C 
HETATM    8  C5  UNK   900       4.911 -65.140 -60.783  1.00  0.00     0.096 A 
HETATM    9  C6  UNK   900       1.155 -64.052 -62.671  1.00  0.00     0.083 A 
HETATM   10  C7  UNK   900       4.890 -62.733 -60.760  1.00  0.00     0.082 A 
HETATM   11  C8  UNK   900       1.192 -66.803 -62.233  1.00  0.00     0.019 A 
HETATM   12  C9  UNK   900       3.637 -66.887 -62.177  1.00  0.00     0.299 C 
HETATM   13  C10 UNK   900      -0.042 -64.766 -62.635  1.00  0.00     0.038 A 
HETATM   14  C11 UNK   900       5.743 -65.153 -59.662  1.00  0.00     0.038 A 
HETATM   15  C12 UNK   900      -0.024 -66.141 -62.412  1.00  0.00     0.004 A 
HETATM   16  C13 UNK   900       5.711 -62.739 -59.632  1.00  0.00     0.037 A 
HETATM   17  C14 UNK   900       6.136 -63.949 -59.081  1.00  0.00     0.006 A 
ENDROOT
BRANCH   9  18
HETATM   18  O2  UNK   900       1.044 -62.713 -62.891  1.00  0.00    -0.355 OA
HETATM   19  C15 UNK   900       0.572 -61.920 -61.804  1.00  0.00     0.210 C 
ENDBRANCH   9  18
BRANCH  10  20
HETATM   20  O4  UNK   900       4.490 -61.517 -61.232  1.00  0.00    -0.360 OA
HETATM   21  H7  UNK   900       4.867 -61.356 -62.111  1.00  0.00     0.217 HD
ENDBRANCH  10  20
TORSDOF 2
ENDMDL
MODEL 3
REMARK VINA RESULT:      -5.7     28.677     30.758
REMARK  2 active torsions:
REMARK  status: ('A' for Active; 'I' for Inactive)
REMARK    1  A    between atoms: O2_2  and  C6_11 
REMARK    2  A    between atoms: O4_4  and  C7_12 
ROOT
HETATM    1  O1  UNK   900       9.990 -67.963 -48.939  1.00  0.00    -0.274 OA
HETATM    2  O3  UNK   900       6.411 -67.776 -47.208  1.00  0.00    -0.286 OA
HETATM    3  O5  UNK   900      10.281 -65.770 -49.502  1.00  0.00    -0.259 OA
HETATM    4  C1  UNK   900       7.061 -67.226 -49.389  1.00  0.00     0.065 A 
HETATM    5  C2  UNK   900       8.003 -69.208 -48.156  1.00  0.00     0.082 A 
HETATM    6  C3  UNK   900       8.187 -66.696 -50.017  1.00  0.00     0.056 A 
HETATM    7  C4  UNK   900       7.136 -68.027 -48.161  1.00  0.00     0.201 C 
HETATM    8  C5  UNK   900       9.318 -69.165 -48.601  1.00  0.00     0.096 A 
HETATM    9  C6  UNK   900       5.786 -67.020 -49.934  1.00  0.00     0.083 A 
HETATM   10  C7  UNK   900       7.467 -70.419 -47.706  1.00  0.00     0.082 A 
HETATM   11  C8  UNK   900       8.028 -65.961 -51.201  1.00  0.00     0.019 A 
HETATM   12  C9  UNK   900       9.545 -66.748 -49.449  1.00  0.00     0.299 C 
HETATM   13  C10 UNK   900       5.639 -66.296 -51.116  1.00  0.00     0.038 A 
HETATM   14  C11 UNK   900      10.109 -70.316 -48.603  1.00  0.00     0.038 A 
HETATM   15  C12 UNK   900       6.760 -65.770 -51.752  1.00  0.00     0.004 A 
HETATM   16  C13 UNK   900       8.249 -71.576 -47.718  1.00  0.00     0.037 A 
HETATM   17  C14 UNK   900       9.568 -71.525 -48.170  1.00  0.00     0.006 A 
ENDROOT
BRANCH   9  18
HETATM   18  O2  UNK   900       4.638 -67.502 -49.382  1.00  0.00    -0.355 OA
HETATM   19  C15 UNK   900       3.429 -66.829 -49.724  1.00  0.00     0.210 C 
ENDBRANCH   9  18
BRANCH  10  20
HETATM   20  O4  UNK   900       6.179 -70.543 -47.277  1.00  0.00    -0.360 OA
HETATM   21  H7  UNK   900       5.858 -71.447 -47.429  1.00  0.00     0.217 HD
ENDBRANCH  10  20
TORSDOF 2
ENDMDL
MODEL 4
REMARK VINA RESULT:      -5.7      1.092      5.630
REMARK  2 active torsions:
REMARK  status: ('A' for Active; 'I' for Inactive)
REMARK    1  A    between atoms: O2_2  and  C6_11 
REMARK    2  A    between atoms: O4_4  and  C7_12 
ROOT
HETATM    1  O1  UNK   900       9.095 -53.581 -74.786  1.00  0.00    -0.274 OA
HETATM    2  O3  UNK   900       6.443 -50.631 -74.462  1.00  0.00    -0.286 OA
HETATM    3  O5  UNK   900       9.372 -54.118 -72.584  1.00  0.00    -0.259 OA
HETATM    4  C1  UNK   900       8.608 -50.815 -73.588  1.00  0.00     0.065 A 
HETATM    5  C2  UNK   900       8.000 -51.655 -75.881  1.00  0.00     0.082 A 
HETATM    6  C3  UNK   900       9.431 -51.829 -73.102  1.00  0.00     0.056 A 
HETATM    7  C4  UNK   900       7.585 -51.042 -74.616  1.00  0.00     0.201 C 
HETATM    8  C5  UNK   900       8.775 -52.807 -75.930  1.00  0.00     0.096 A 
HETATM    9  C6  UNK   900       8.744 -49.505 -73.110  1.00  0.00     0.083 A 
HETATM   10  C7  UNK   900       7.611 -51.036 -77.074  1.00  0.00     0.082 A 
HETATM   11  C8  UNK   900      10.399 -51.521 -72.134  1.00  0.00     0.019 A 
HETATM   12  C9  UNK   900       9.271 -53.253 -73.446  1.00  0.00     0.299 C 
HETATM   13  C10 UNK   900       9.715 -49.206 -72.155  1.00  0.00     0.038 A 
HETATM   14  C11 UNK   900       9.170 -53.350 -77.154  1.00  0.00     0.038 A 
HETATM   15  C12 UNK   900      10.545 -50.213 -71.670  1.00  0.00     0.004 A 
HETATM   16  C13 UNK   900       8.014 -51.567 -78.300  1.00  0.00     0.037 A 
HETATM   17  C14 UNK   900       8.796 -52.722 -78.340  1.00  0.00     0.006 A 
ENDROOT
BRANCH   9  18
HETATM   18  O2  UNK   900       7.980 -48.459 -73.531  1.00  0.00    -0.355 OA
HETATM   19  C15 UNK   900       7.302 -47.711 -72.525  1.00  0.00     0.210 C 
ENDBRANCH   9  18
BRANCH  10  20
HETATM   20  O4  UNK   900       6.871 -49.891 -77.105  1.00  0.00    -0.360 OA
HETATM   21  H7  UNK   900       7.426 -49.125 -76.889  1.00  0.00     0.217 HD
ENDBRANCH  10  20
TORSDOF 2
ENDMDL
MODEL 5
REMARK VINA RESULT:      -5.6     34.757     36.290
REMARK  2 active torsions:
REMARK  status: ('A' for Active; 'I' for Inactive)
REMARK    1  A    between atoms: O2_2  and  C6_11 
REMARK    2  A    between atoms: O4_4  and  C7_12 
ROOT
HETATM    1  O1  UNK   900      23.060 -32.595 -46.178  1.00  0.00    -0.274 OA
HETATM    2  O3  UNK   900      20.374 -29.977 -47.510  1.00  0.00    -0.286 OA
HETATM    3  O5  UNK   900      24.925 -31.277 -46.144  1.00  0.00    -0.259 OA
HETATM    4  C1  UNK   900      22.346 -30.752 -48.506  1.00  0.00     0.065 A 
HETATM    5  C2  UNK   900      20.825 -32.252 -47.175  1.00  0.00     0.082 A 
HETATM    6  C3  UNK   900      23.613 -31.156 -48.087  1.00  0.00     0.056 A 
HETATM    7  C4  UNK   900      21.144 -30.913 -47.680  1.00  0.00     0.201 C 
HETATM    8  C5  UNK   900      21.768 -33.050 -46.541  1.00  0.00     0.096 A 
HETATM    9  C6  UNK   900      22.172 -30.179 -49.773  1.00  0.00     0.083 A 
HETATM   10  C7  UNK   900      19.527 -32.737 -47.364  1.00  0.00     0.082 A 
HETATM   11  C8  UNK   900      24.707 -30.987 -48.949  1.00  0.00     0.019 A 
HETATM   12  C9  UNK   900      23.912 -31.643 -46.729  1.00  0.00     0.299 C 
HETATM   13  C10 UNK   900      23.262 -30.023 -50.627  1.00  0.00     0.038 A 
HETATM   14  C11 UNK   900      21.434 -34.330 -46.093  1.00  0.00     0.038 A 
HETATM   15  C12 UNK   900      24.529 -30.430 -50.217  1.00  0.00     0.004 A 
HETATM   16  C13 UNK   900      19.190 -34.020 -46.930  1.00  0.00     0.037 A 
HETATM   17  C14 UNK   900      20.145 -34.818 -46.297  1.00  0.00     0.006 A 
ENDROOT
BRANCH   9  18
HETATM   18  O2  UNK   900      20.970 -29.758 -50.257  1.00  0.00    -0.355 OA
HETATM   19  C15 UNK   900      20.805 -28.353 -50.433  1.00  0.00     0.210 C 
ENDBRANCH   9  18
BRANCH  10  20
HETATM   20  O4  UNK   900      18.555 -32.020 -47.998  1.00  0.00    -0.360 OA
HETATM   21  H7  UNK   900      17.978 -32.611 -48.507  1.00  0.00     0.217 HD
ENDBRANCH  10  20
TORSDOF 2
ENDMDL
MODEL 6
REMARK VINA RESULT:      -5.5     34.632     36.640
REMARK  2 active torsions:
REMARK  status: ('A' for Active; 'I' for Inactive)
REMARK    1  A    between atoms: O2_2  and  C6_11 
REMARK    2  A    between atoms: O4_4  and  C7_12 
ROOT
HETATM    1  O1  UNK   900      25.284 -30.551 -49.440  1.00  0.00    -0.274 OA
HETATM    2  O3  UNK   900      21.926 -28.760 -48.276  1.00  0.00    -0.286 OA
HETATM    3  O5  UNK   900      26.694 -28.757 -49.511  1.00  0.00    -0.259 OA
HETATM    4  C1  UNK   900      23.240 -28.406 -50.181  1.00  0.00     0.065 A 
HETATM    5  C2  UNK   900      22.826 -30.700 -49.231  1.00  0.00     0.082 A 
HETATM    6  C3  UNK   900      24.593 -28.455 -50.513  1.00  0.00     0.056 A 
HETATM    7  C4  UNK   900      22.645 -29.249 -49.137  1.00  0.00     0.201 C 
HETATM    8  C5  UNK   900      24.068 -31.280 -49.452  1.00  0.00     0.096 A 
HETATM    9  C6  UNK   900      22.377 -27.539 -50.864  1.00  0.00     0.083 A 
HETATM   10  C7  UNK   900      21.696 -31.516 -49.115  1.00  0.00     0.082 A 
HETATM   11  C8  UNK   900      25.077 -27.631 -51.540  1.00  0.00     0.019 A 
HETATM   12  C9  UNK   900      25.595 -29.234 -49.765  1.00  0.00     0.299 C 
HETATM   13  C10 UNK   900      22.864 -26.730 -51.889  1.00  0.00     0.038 A 
HETATM   14  C11 UNK   900      24.200 -32.666 -49.559  1.00  0.00     0.038 A 
HETATM   15  C12 UNK   900      24.213 -26.779 -52.230  1.00  0.00     0.004 A 
HETATM   16  C13 UNK   900      21.819 -32.901 -49.234  1.00  0.00     0.037 A 
HETATM   17  C14 UNK   900      23.071 -33.476 -49.459  1.00  0.00     0.006 A 
ENDROOT
BRANCH   9  18
HETATM   18  O2  UNK   900      21.045 -27.430 -50.600  1.00  0.00    -0.355 OA
HETATM   19  C15 UNK   900      20.562 -26.135 -50.250  1.00  0.00     0.210 C 
ENDBRANCH   9  18
BRANCH  10  20
HETATM   20  O4  UNK   900      20.441 -31.018 -48.922  1.00  0.00    -0.360 OA
HETATM   21  H7  UNK   900      20.273 -30.886 -47.975  1.00  0.00     0.217 HD
ENDBRANCH  10  20
TORSDOF 2
ENDMDL
MODEL 7
REMARK VINA RESULT:      -5.4     14.322     16.949
REMARK  2 active torsions:
REMARK  status: ('A' for Active; 'I' for Inactive)
REMARK    1  A    between atoms: O2_2  and  C6_11 
REMARK    2  A    between atoms: O4_4  and  C7_12 
ROOT
HETATM    1  O1  UNK   900       1.727 -43.081 -60.168  1.00  0.00    -0.274 OA
HETATM    2  O3  UNK   900       3.466 -44.089 -63.604  1.00  0.00    -0.286 OA
HETATM    3  O5  UNK   900       0.823 -41.067 -60.749  1.00  0.00    -0.259 OA
HETATM    4  C1  UNK   900       3.819 -42.231 -62.224  1.00  0.00     0.065 A 
HETATM    5  C2  UNK   900       3.373 -44.531 -61.305  1.00  0.00     0.082 A 
HETATM    6  C3  UNK   900       3.054 -41.418 -61.389  1.00  0.00     0.056 A 
HETATM    7  C4  UNK   900       3.506 -43.644 -62.464  1.00  0.00     0.201 C 
HETATM    8  C5  UNK   900       2.590 -44.205 -60.206  1.00  0.00     0.096 A 
HETATM    9  C6  UNK   900       4.953 -41.715 -62.865  1.00  0.00     0.083 A 
HETATM   10  C7  UNK   900       4.084 -45.737 -61.311  1.00  0.00     0.082 A 
HETATM   11  C8  UNK   900       3.437 -40.082 -61.195  1.00  0.00     0.019 A 
HETATM   12  C9  UNK   900       1.778 -41.833 -60.781  1.00  0.00     0.299 C 
HETATM   13  C10 UNK   900       5.331 -40.389 -62.660  1.00  0.00     0.038 A 
HETATM   14  C11 UNK   900       2.506 -45.065 -59.109  1.00  0.00     0.038 A 
HETATM   15  C12 UNK   900       4.575 -39.573 -61.822  1.00  0.00     0.004 A 
HETATM   16  C13 UNK   900       4.014 -46.594 -60.212  1.00  0.00     0.037 A 
HETATM   17  C14 UNK   900       3.228 -46.257 -59.110  1.00  0.00     0.006 A 
ENDROOT
BRANCH   9  18
HETATM   18  O2  UNK   900       5.751 -42.441 -63.697  1.00  0.00    -0.355 OA
HETATM   19  C15 UNK   900       5.753 -42.070 -65.073  1.00  0.00     0.210 C 
ENDBRANCH   9  18
BRANCH  10  20
HETATM   20  O4  UNK   900       4.891 -46.113 -62.344  1.00  0.00    -0.360 OA
HETATM   21  H7  UNK   900       5.232 -45.332 -62.808  1.00  0.00     0.217 HD
ENDBRANCH  10  20
TORSDOF 2
ENDMDL
MODEL 8
REMARK VINA RESULT:      -5.3     12.989     15.758
REMARK  2 active torsions:
REMARK  status: ('A' for Active; 'I' for Inactive)
REMARK    1  A    between atoms: O2_2  and  C6_11 
REMARK    2  A    between atoms: O4_4  and  C7_12 
ROOT
HETATM    1  O1  UNK   900       8.484 -37.850 -64.291  1.00  0.00    -0.274 OA
HETATM    2  O3  UNK   900       4.911 -39.434 -65.041  1.00  0.00    -0.286 OA
HETATM    3  O5  UNK   900       8.595 -36.296 -65.960  1.00  0.00    -0.259 OA
HETATM    4  C1  UNK   900       6.825 -39.327 -66.386  1.00  0.00     0.065 A 
HETATM    5  C2  UNK   900       6.937 -39.738 -63.905  1.00  0.00     0.082 A 
HETATM    6  C3  UNK   900       7.880 -38.440 -66.594  1.00  0.00     0.056 A 
HETATM    7  C4  UNK   900       6.134 -39.455 -65.098  1.00  0.00     0.201 C 
HETATM    8  C5  UNK   900       8.081 -39.016 -63.593  1.00  0.00     0.096 A 
HETATM    9  C6  UNK   900       6.390 -40.162 -67.424  1.00  0.00     0.083 A 
HETATM   10  C7  UNK   900       6.537 -40.789 -63.073  1.00  0.00     0.082 A 
HETATM   11  C8  UNK   900       8.501 -38.397 -67.851  1.00  0.00     0.019 A 
HETATM   12  C9  UNK   900       8.316 -37.436 -65.608  1.00  0.00     0.299 C 
HETATM   13  C10 UNK   900       7.019 -40.120 -68.667  1.00  0.00     0.038 A 
HETATM   14  C11 UNK   900       8.836 -39.328 -62.460  1.00  0.00     0.038 A 
HETATM   15  C12 UNK   900       8.078 -39.241 -68.880  1.00  0.00     0.004 A 
HETATM   16  C13 UNK   900       7.294 -41.114 -61.947  1.00  0.00     0.037 A 
HETATM   17  C14 UNK   900       8.444 -40.386 -61.641  1.00  0.00     0.006 A 
ENDROOT
BRANCH   9  18
HETATM   18  O2  UNK   900       5.368 -41.054 -67.303  1.00  0.00    -0.355 OA
HETATM   19  C15 UNK   900       5.716 -42.436 -67.305  1.00  0.00     0.210 C 
ENDBRANCH   9  18
BRANCH  10  20
HETATM   20  O4  UNK   900       5.439 -41.556 -63.328  1.00  0.00    -0.360 OA
HETATM   21  H7  UNK   900       5.344 -42.244 -62.650  1.00  0.00     0.217 HD
ENDBRANCH  10  20
TORSDOF 2
ENDMDL
MODEL 9
REMARK VINA RESULT:      -5.2     18.478     20.024
REMARK  2 active torsions:
REMARK  status: ('A' for Active; 'I' for Inactive)
REMARK    1  A    between atoms: O2_2  and  C6_11 
REMARK    2  A    between atoms: O4_4  and  C7_12 
ROOT
HETATM    1  O1  UNK   900       0.448 -64.937 -62.913  1.00  0.00    -0.274 OA
HETATM    2  O3  UNK   900       4.328 -65.723 -63.327  1.00  0.00    -0.286 OA
HETATM    3  O5  UNK   900       0.420 -62.730 -63.497  1.00  0.00    -0.259 OA
HETATM    4  C1  UNK   900       3.242 -64.181 -61.939  1.00  0.00     0.065 A 
HETATM    5  C2  UNK   900       2.313 -66.475 -62.398  1.00  0.00     0.082 A 
HETATM    6  C3  UNK   900       2.106 -63.377 -61.998  1.00  0.00     0.056 A 
HETATM    7  C4  UNK   900       3.347 -65.465 -62.642  1.00  0.00     0.201 C 
HETATM    8  C5  UNK   900       0.958 -66.179 -62.456  1.00  0.00     0.096 A 
HETATM    9  C6  UNK   900       4.347 -63.788 -61.171  1.00  0.00     0.083 A 
HETATM   10  C7  UNK   900       2.721 -67.774 -62.075  1.00  0.00     0.082 A 
HETATM   11  C8  UNK   900       2.080 -62.174 -61.276  1.00  0.00     0.019 A 
HETATM   12  C9  UNK   900       0.956 -63.642 -62.879  1.00  0.00     0.299 C 
HETATM   13  C10 UNK   900       4.309 -62.596 -60.450  1.00  0.00     0.038 A 
HETATM   14  C11 UNK   900       0.000 -67.161 -62.195  1.00  0.00     0.038 A 
HETATM   15  C12 UNK   900       3.174 -61.790 -60.499  1.00  0.00     0.004 A 
HETATM   16  C13 UNK   900       1.769 -68.756 -61.800  1.00  0.00     0.037 A 
HETATM   17  C14 UNK   900       0.409 -68.450 -61.858  1.00  0.00     0.006 A 
ENDROOT
BRANCH   9  18
HETATM   18  O2  UNK   900       5.493 -64.515 -61.062  1.00  0.00    -0.355 OA
HETATM   19  C15 UNK   900       5.776 -65.082 -59.786  1.00  0.00     0.210 C 
ENDBRANCH   9  18
BRANCH  10  20
HETATM   20  O4  UNK   900       4.033 -68.133 -61.976  1.00  0.00    -0.360 OA
HETATM   21  H7  UNK   900       4.180 -68.654 -61.170  1.00  0.00     0.217 HD
ENDBRANCH  10  20
TORSDOF 2
ENDMDL
