MODEL 1
REMARK VINA RESULT:      -6.0      0.000      0.000
REMARK  4 active torsions:
REMARK  status: ('A' for Active; 'I' for Inactive)
REMARK    1  A    between atoms: O2_2  and  C14_17 
REMARK    2  A    between atoms: O3_3  and  C15_18 
REMARK    3  A    between atoms: C7_10  and  C14_17 
REMARK    4  A    between atoms: C8_11  and  C15_18 
ROOT
HETATM    1  O1  UNK   900      33.668 -50.126 -58.462  1.00  0.00    -0.298 OA
HETATM    2  C1  UNK   900      32.995 -47.529 -60.498  1.00  0.00     0.026 C 
HETATM    3  C2  UNK   900      32.455 -45.439 -61.637  1.00  0.00    -0.043 C 
HETATM    4  C3  UNK   900      33.490 -46.085 -60.707  1.00  0.00     0.019 C 
HETATM    5  C4  UNK   900      32.202 -47.833 -61.760  1.00  0.00    -0.069 C 
HETATM    6  C5  UNK   900      32.149 -46.584 -62.615  1.00  0.00     0.043 C 
HETATM    7  C6  UNK   900      34.141 -48.491 -60.150  1.00  0.00     0.059 C 
HETATM    8  C7  UNK   900      31.563 -48.990 -62.043  1.00  0.00    -0.047 C 
HETATM    9  C8  UNK   900      31.514 -50.206 -61.121  1.00  0.00     0.047 C 
HETATM   10  C9  UNK   900      31.197 -45.005 -60.863  1.00  0.00     0.015 C 
HETATM   11  C10 UNK   900      33.036 -44.223 -62.365  1.00  0.00     0.015 C 
HETATM   12  C11 UNK   900      33.574 -49.809 -59.649  1.00  0.00     0.132 C 
HETATM   13  C12 UNK   900      32.875 -50.717 -60.638  1.00  0.00     0.089 C 
HETATM   14  C13 UNK   900      35.171 -48.729 -61.258  1.00  0.00     0.018 C 
ENDROOT
BRANCH   8  15
HETATM   15  C14 UNK   900      30.793 -49.191 -63.329  1.00  0.00     0.199 C 
BRANCH  15  16
HETATM   16  O2  UNK   900      31.346 -50.278 -64.039  1.00  0.00    -0.397 OA
HETATM   17  H23 UNK   900      31.105 -50.166 -64.974  1.00  0.00     0.209 HD
ENDBRANCH  15  16
ENDBRANCH   8  15
BRANCH   9  18
HETATM   18  C15 UNK   900      30.517 -50.007 -59.974  1.00  0.00     0.173 C 
BRANCH  18  19
HETATM   19  O3  UNK   900      29.278 -49.608 -60.526  1.00  0.00    -0.400 OA
HETATM   20  H24 UNK   900      28.783 -50.417 -60.736  1.00  0.00     0.209 HD
ENDBRANCH  18  19
ENDBRANCH   9  18
TORSDOF 4
ENDMDL
MODEL 2
REMARK VINA RESULT:      -5.7     32.141     34.227
REMARK  4 active torsions:
REMARK  status: ('A' for Active; 'I' for Inactive)
REMARK    1  A    between atoms: O2_2  and  C14_17 
REMARK    2  A    between atoms: O3_3  and  C15_18 
REMARK    3  A    between atoms: C7_10  and  C14_17 
REMARK    4  A    between atoms: C8_11  and  C15_18 
ROOT
HETATM    1  O1  UNK   900       6.825 -65.438 -49.820  1.00  0.00    -0.298 OA
HETATM    2  C1  UNK   900       6.803 -68.668 -50.775  1.00  0.00     0.026 C 
HETATM    3  C2  UNK   900       6.392 -70.983 -51.427  1.00  0.00    -0.043 C 
HETATM    4  C3  UNK   900       6.127 -69.534 -51.854  1.00  0.00     0.019 C 
HETATM    5  C4  UNK   900       7.926 -69.547 -50.246  1.00  0.00    -0.069 C 
HETATM    6  C5  UNK   900       7.838 -70.904 -50.914  1.00  0.00     0.043 C 
HETATM    7  C6  UNK   900       7.199 -67.282 -51.306  1.00  0.00     0.059 C 
HETATM    8  C7  UNK   900       8.806 -69.223 -49.273  1.00  0.00    -0.047 C 
HETATM    9  C8  UNK   900       8.813 -67.898 -48.513  1.00  0.00     0.047 C 
HETATM   10  C9  UNK   900       5.422 -71.428 -50.318  1.00  0.00     0.015 C 
HETATM   11  C10 UNK   900       6.270 -71.948 -52.611  1.00  0.00     0.015 C 
HETATM   12  C11 UNK   900       7.563 -66.370 -50.146  1.00  0.00     0.132 C 
HETATM   13  C12 UNK   900       8.844 -66.641 -49.387  1.00  0.00     0.089 C 
HETATM   14  C13 UNK   900       8.296 -67.266 -52.373  1.00  0.00     0.018 C 
ENDROOT
BRANCH   8  15
HETATM   15  C14 UNK   900       9.886 -70.175 -48.813  1.00  0.00     0.199 C 
BRANCH  15  16
HETATM   16  O2  UNK   900      10.794 -69.485 -47.982  1.00  0.00    -0.397 OA
HETATM   17  H23 UNK   900      10.310 -69.222 -47.180  1.00  0.00     0.209 HD
ENDBRANCH  15  16
ENDBRANCH   8  15
BRANCH   9  18
HETATM   18  C15 UNK   900       7.711 -67.850 -47.449  1.00  0.00     0.173 C 
BRANCH  18  19
HETATM   19  O3  UNK   900       7.731 -66.572 -46.846  1.00  0.00    -0.400 OA
HETATM   20  H24 UNK   900       6.931 -66.500 -46.299  1.00  0.00     0.209 HD
ENDBRANCH  18  19
ENDBRANCH   9  18
TORSDOF 4
ENDMDL
MODEL 3
REMARK VINA RESULT:      -5.7      2.152      3.284
REMARK  4 active torsions:
REMARK  status: ('A' for Active; 'I' for Inactive)
REMARK    1  A    between atoms: O2_2  and  C14_17 
REMARK    2  A    between atoms: O3_3  and  C15_18 
REMARK    3  A    between atoms: C7_10  and  C14_17 
REMARK    4  A    between atoms: C8_11  and  C15_18 
ROOT
HETATM    1  O1  UNK   900      35.398 -46.979 -60.599  1.00  0.00    -0.298 OA
HETATM    2  C1  UNK   900      32.443 -47.321 -62.179  1.00  0.00     0.026 C 
HETATM    3  C2  UNK   900      30.317 -47.174 -63.369  1.00  0.00    -0.043 C 
HETATM    4  C3  UNK   900      31.823 -46.940 -63.537  1.00  0.00     0.019 C 
HETATM    5  C4  UNK   900      31.472 -48.343 -61.605  1.00  0.00    -0.069 C 
HETATM    6  C5  UNK   900      30.287 -48.468 -62.540  1.00  0.00     0.043 C 
HETATM    7  C6  UNK   900      33.910 -47.757 -62.311  1.00  0.00     0.059 C 
HETATM    8  C7  UNK   900      31.585 -48.972 -60.414  1.00  0.00    -0.047 C 
HETATM    9  C8  UNK   900      32.718 -48.750 -59.416  1.00  0.00     0.047 C 
HETATM   10  C9  UNK   900      29.647 -46.008 -62.620  1.00  0.00     0.015 C 
HETATM   11  C10 UNK   900      29.624 -47.361 -64.722  1.00  0.00     0.015 C 
HETATM   12  C11 UNK   900      34.557 -47.814 -60.937  1.00  0.00     0.132 C 
HETATM   13  C12 UNK   900      34.132 -48.910 -59.983  1.00  0.00     0.089 C 
HETATM   14  C13 UNK   900      34.152 -49.058 -63.080  1.00  0.00     0.018 C 
ENDROOT
BRANCH   8  15
HETATM   15  C14 UNK   900      30.557 -49.971 -59.931  1.00  0.00     0.199 C 
BRANCH  15  16
HETATM   16  O2  UNK   900      30.015 -49.526 -58.706  1.00  0.00    -0.397 OA
HETATM   17  H23 UNK   900      29.057 -49.420 -58.835  1.00  0.00     0.209 HD
ENDBRANCH  15  16
ENDBRANCH   8  15
BRANCH   9  18
HETATM   18  C15 UNK   900      32.540 -47.442 -58.639  1.00  0.00     0.173 C 
BRANCH  18  19
HETATM   19  O3  UNK   900      32.402 -47.754 -57.267  1.00  0.00    -0.400 OA
HETATM   20  H24 UNK   900      31.451 -47.820 -57.080  1.00  0.00     0.209 HD
ENDBRANCH  18  19
ENDBRANCH   9  18
TORSDOF 4
ENDMDL
MODEL 4
REMARK VINA RESULT:      -5.5     31.667     34.680
REMARK  4 active torsions:
REMARK  status: ('A' for Active; 'I' for Inactive)
REMARK    1  A    between atoms: O2_2  and  C14_17 
REMARK    2  A    between atoms: O3_3  and  C15_18 
REMARK    3  A    between atoms: C7_10  and  C14_17 
REMARK    4  A    between atoms: C8_11  and  C15_18 
ROOT
HETATM    1  O1  UNK   900       4.822 -67.016 -47.584  1.00  0.00    -0.298 OA
HETATM    2  C1  UNK   900       5.085 -68.513 -50.590  1.00  0.00     0.026 C 
HETATM    3  C2  UNK   900       5.202 -69.935 -52.570  1.00  0.00    -0.043 C 
HETATM    4  C3  UNK   900       4.242 -69.450 -51.476  1.00  0.00     0.019 C 
HETATM    5  C4  UNK   900       6.156 -67.981 -51.530  1.00  0.00    -0.069 C 
HETATM    6  C5  UNK   900       6.006 -68.662 -52.875  1.00  0.00     0.043 C 
HETATM    7  C6  UNK   900       4.223 -67.471 -49.861  1.00  0.00     0.059 C 
HETATM    8  C7  UNK   900       7.145 -67.116 -51.210  1.00  0.00    -0.047 C 
HETATM    9  C8  UNK   900       7.368 -66.527 -49.819  1.00  0.00     0.047 C 
HETATM   10  C9  UNK   900       6.110 -71.068 -52.059  1.00  0.00     0.015 C 
HETATM   11  C10 UNK   900       4.441 -70.426 -53.806  1.00  0.00     0.015 C 
HETATM   12  C11 UNK   900       5.042 -66.792 -48.776  1.00  0.00     0.132 C 
HETATM   13  C12 UNK   900       6.148 -65.846 -49.191  1.00  0.00     0.089 C 
HETATM   14  C13 UNK   900       3.535 -66.434 -50.752  1.00  0.00     0.018 C 
ENDROOT
BRANCH   8  15
HETATM   15  C14 UNK   900       8.168 -66.652 -52.221  1.00  0.00     0.199 C 
BRANCH  15  16
HETATM   16  O2  UNK   900       8.505 -65.306 -51.959  1.00  0.00    -0.397 OA
HETATM   17  H23 UNK   900       9.461 -65.275 -51.789  1.00  0.00     0.209 HD
ENDBRANCH  15  16
ENDBRANCH   8  15
BRANCH   9  18
HETATM   18  C15 UNK   900       8.029 -67.538 -48.876  1.00  0.00     0.173 C 
BRANCH  18  19
HETATM   19  O3  UNK   900       8.443 -66.854 -47.709  1.00  0.00    -0.400 OA
HETATM   20  H24 UNK   900       7.650 -66.704 -47.168  1.00  0.00     0.209 HD
ENDBRANCH  18  19
ENDBRANCH   9  18
TORSDOF 4
ENDMDL
MODEL 5
REMARK VINA RESULT:      -5.2      3.570      5.839
REMARK  4 active torsions:
REMARK  status: ('A' for Active; 'I' for Inactive)
REMARK    1  A    between atoms: O2_2  and  C14_17 
REMARK    2  A    between atoms: O3_3  and  C15_18 
REMARK    3  A    between atoms: C7_10  and  C14_17 
REMARK    4  A    between atoms: C8_11  and  C15_18 
ROOT
HETATM    1  O1  UNK   900      32.094 -42.137 -63.397  1.00  0.00    -0.298 OA
HETATM    2  C1  UNK   900      30.910 -44.784 -65.111  1.00  0.00     0.026 C 
HETATM    3  C2  UNK   900      29.702 -46.512 -66.340  1.00  0.00    -0.043 C 
HETATM    4  C3  UNK   900      30.141 -45.044 -66.420  1.00  0.00     0.019 C 
HETATM    5  C4  UNK   900      31.455 -46.151 -64.726  1.00  0.00    -0.069 C 
HETATM    6  C5  UNK   900      30.935 -47.178 -65.710  1.00  0.00     0.043 C 
HETATM    7  C6  UNK   900      31.932 -43.645 -65.254  1.00  0.00     0.059 C 
HETATM    8  C7  UNK   900      32.202 -46.436 -63.635  1.00  0.00    -0.047 C 
HETATM    9  C8  UNK   900      32.621 -45.419 -62.577  1.00  0.00     0.047 C 
HETATM   10  C9  UNK   900      28.455 -46.678 -65.453  1.00  0.00     0.015 C 
HETATM   11  C10 UNK   900      29.406 -47.085 -67.729  1.00  0.00     0.015 C 
HETATM   12  C11 UNK   900      32.427 -43.221 -63.881  1.00  0.00     0.132 C 
HETATM   13  C12 UNK   900      33.323 -44.167 -63.112  1.00  0.00     0.089 C 
HETATM   14  C13 UNK   900      33.107 -43.919 -66.194  1.00  0.00     0.018 C 
ENDROOT
BRANCH   8  15
HETATM   15  C14 UNK   900      32.691 -47.835 -63.338  1.00  0.00     0.199 C 
BRANCH  15  16
HETATM   16  O2  UNK   900      31.775 -48.476 -62.476  1.00  0.00    -0.397 OA
HETATM   17  H23 UNK   900      30.949 -48.603 -62.973  1.00  0.00     0.209 HD
ENDBRANCH  15  16
ENDBRANCH   8  15
BRANCH   9  18
HETATM   18  C15 UNK   900      31.467 -45.086 -61.624  1.00  0.00     0.173 C 
BRANCH  18  19
HETATM   19  O3  UNK   900      31.324 -46.153 -60.709  1.00  0.00    -0.400 OA
HETATM   20  H24 UNK   900      31.306 -45.767 -59.817  1.00  0.00     0.209 HD
ENDBRANCH  18  19
ENDBRANCH   9  18
TORSDOF 4
ENDMDL
MODEL 6
REMARK VINA RESULT:      -5.2     31.568     34.397
REMARK  4 active torsions:
REMARK  status: ('A' for Active; 'I' for Inactive)
REMARK    1  A    between atoms: O2_2  and  C14_17 
REMARK    2  A    between atoms: O3_3  and  C15_18 
REMARK    3  A    between atoms: C7_10  and  C14_17 
REMARK    4  A    between atoms: C8_11  and  C15_18 
ROOT
HETATM    1  O1  UNK   900       6.078 -70.162 -46.805  1.00  0.00    -0.298 OA
HETATM    2  C1  UNK   900       5.684 -68.001 -49.357  1.00  0.00     0.026 C 
HETATM    3  C2  UNK   900       5.166 -66.716 -51.366  1.00  0.00    -0.043 C 
HETATM    4  C3  UNK   900       4.523 -67.333 -50.118  1.00  0.00     0.019 C 
HETATM    5  C4  UNK   900       6.907 -67.195 -49.769  1.00  0.00    -0.069 C 
HETATM    6  C5  UNK   900       6.490 -66.173 -50.806  1.00  0.00     0.043 C 
HETATM    7  C6  UNK   900       5.403 -68.113 -47.851  1.00  0.00     0.059 C 
HETATM    8  C7  UNK   900       8.178 -67.405 -49.361  1.00  0.00    -0.047 C 
HETATM    9  C8  UNK   900       8.614 -68.517 -48.410  1.00  0.00     0.047 C 
HETATM   10  C9  UNK   900       5.406 -67.775 -52.457  1.00  0.00     0.015 C 
HETATM   11  C10 UNK   900       4.301 -65.592 -51.946  1.00  0.00     0.015 C 
HETATM   12  C11 UNK   900       6.415 -69.047 -47.206  1.00  0.00     0.132 C 
HETATM   13  C12 UNK   900       7.850 -68.584 -47.084  1.00  0.00     0.089 C 
HETATM   14  C13 UNK   900       5.322 -66.789 -47.087  1.00  0.00     0.018 C 
ENDROOT
BRANCH   8  15
HETATM   15  C14 UNK   900       9.329 -66.548 -49.837  1.00  0.00     0.199 C 
BRANCH  15  16
HETATM   16  O2  UNK   900      10.138 -66.200 -48.734  1.00  0.00    -0.397 OA
HETATM   17  H23 UNK   900      11.061 -66.202 -49.040  1.00  0.00     0.209 HD
ENDBRANCH  15  16
ENDBRANCH   8  15
BRANCH   9  18
HETATM   18  C15 UNK   900       8.682 -69.874 -49.120  1.00  0.00     0.173 C 
BRANCH  18  19
HETATM   19  O3  UNK   900       9.974 -70.020 -49.677  1.00  0.00    -0.400 OA
HETATM   20  H24 UNK   900      10.612 -69.932 -48.949  1.00  0.00     0.209 HD
ENDBRANCH  18  19
ENDBRANCH   9  18
TORSDOF 4
ENDMDL
MODEL 7
REMARK VINA RESULT:      -5.1     21.768     24.303
REMARK  4 active torsions:
REMARK  status: ('A' for Active; 'I' for Inactive)
REMARK    1  A    between atoms: O2_2  and  C14_17 
REMARK    2  A    between atoms: O3_3  and  C15_18 
REMARK    3  A    between atoms: C7_10  and  C14_17 
REMARK    4  A    between atoms: C8_11  and  C15_18 
ROOT
HETATM    1  O1  UNK   900      21.502 -28.996 -45.302  1.00  0.00    -0.298 OA
HETATM    2  C1  UNK   900      22.599 -31.494 -47.277  1.00  0.00     0.026 C 
HETATM    3  C2  UNK   900      23.442 -33.021 -48.984  1.00  0.00    -0.043 C 
HETATM    4  C3  UNK   900      23.843 -31.814 -48.127  1.00  0.00     0.019 C 
HETATM    5  C4  UNK   900      21.881 -32.829 -47.157  1.00  0.00    -0.069 C 
HETATM    6  C5  UNK   900      22.619 -33.856 -47.991  1.00  0.00     0.043 C 
HETATM    7  C6  UNK   900      22.960 -30.780 -45.965  1.00  0.00     0.059 C 
HETATM    8  C7  UNK   900      20.722 -33.059 -46.499  1.00  0.00    -0.047 C 
HETATM    9  C8  UNK   900      19.914 -31.993 -45.763  1.00  0.00     0.047 C 
HETATM   10  C9  UNK   900      22.597 -32.593 -50.198  1.00  0.00     0.015 C 
HETATM   11  C10 UNK   900      24.670 -33.791 -49.480  1.00  0.00     0.015 C 
HETATM   12  C11 UNK   900      21.704 -30.212 -45.326  1.00  0.00     0.132 C 
HETATM   13  C12 UNK   900      20.696 -31.172 -44.733  1.00  0.00     0.089 C 
HETATM   14  C13 UNK   900      23.757 -31.608 -44.954  1.00  0.00     0.018 C 
ENDROOT
BRANCH   8  15
HETATM   15  C14 UNK   900      20.084 -34.428 -46.445  1.00  0.00     0.199 C 
BRANCH  15  16
HETATM   16  O2  UNK   900      18.870 -34.349 -45.731  1.00  0.00    -0.397 OA
HETATM   17  H23 UNK   900      19.087 -34.383 -44.784  1.00  0.00     0.209 HD
ENDBRANCH  15  16
ENDBRANCH   8  15
BRANCH   9  18
HETATM   18  C15 UNK   900      19.118 -31.115 -46.735  1.00  0.00     0.173 C 
BRANCH  18  19
HETATM   19  O3  UNK   900      18.497 -31.955 -47.687  1.00  0.00    -0.400 OA
HETATM   20  H24 UNK   900      18.128 -32.714 -47.204  1.00  0.00     0.209 HD
ENDBRANCH  18  19
ENDBRANCH   9  18
TORSDOF 4
ENDMDL
MODEL 8
REMARK VINA RESULT:      -4.8     21.770     23.192
REMARK  4 active torsions:
REMARK  status: ('A' for Active; 'I' for Inactive)
REMARK    1  A    between atoms: O2_2  and  C14_17 
REMARK    2  A    between atoms: O3_3  and  C15_18 
REMARK    3  A    between atoms: C7_10  and  C14_17 
REMARK    4  A    between atoms: C8_11  and  C15_18 
ROOT
HETATM    1  O1  UNK   900      33.428 -39.705 -37.069  1.00  0.00    -0.298 OA
HETATM    2  C1  UNK   900      35.702 -41.785 -38.427  1.00  0.00     0.026 C 
HETATM    3  C2  UNK   900      37.615 -43.009 -39.320  1.00  0.00    -0.043 C 
HETATM    4  C3  UNK   900      37.033 -42.444 -38.018  1.00  0.00     0.019 C 
HETATM    5  C4  UNK   900      35.272 -42.559 -39.663  1.00  0.00    -0.069 C 
HETATM    6  C5  UNK   900      36.359 -43.552 -40.019  1.00  0.00     0.043 C 
HETATM    7  C6  UNK   900      34.701 -41.727 -37.262  1.00  0.00     0.059 C 
HETATM    8  C7  UNK   900      34.154 -42.344 -40.393  1.00  0.00    -0.047 C 
HETATM    9  C8  UNK   900      33.121 -41.259 -40.103  1.00  0.00     0.047 C 
HETATM   10  C9  UNK   900      38.297 -41.911 -40.155  1.00  0.00     0.015 C 
HETATM   11  C10 UNK   900      38.627 -44.126 -39.044  1.00  0.00     0.015 C 
HETATM   12  C11 UNK   900      33.549 -40.801 -37.618  1.00  0.00     0.132 C 
HETATM   13  C12 UNK   900      32.564 -41.248 -38.677  1.00  0.00     0.089 C 
HETATM   14  C13 UNK   900      34.179 -43.077 -36.765  1.00  0.00     0.018 C 
ENDROOT
BRANCH   8  15
HETATM   15  C14 UNK   900      33.820 -43.169 -41.616  1.00  0.00     0.199 C 
BRANCH  15  16
HETATM   16  O2  UNK   900      33.072 -42.383 -42.518  1.00  0.00    -0.397 OA
HETATM   17  H23 UNK   900      32.138 -42.454 -42.259  1.00  0.00     0.209 HD
ENDBRANCH  15  16
ENDBRANCH   8  15
BRANCH   9  18
HETATM   18  C15 UNK   900      33.608 -39.878 -40.556  1.00  0.00     0.173 C 
BRANCH  18  19
HETATM   19  O3  UNK   900      32.854 -39.489 -41.687  1.00  0.00    -0.400 OA
HETATM   20  H24 UNK   900      32.852 -40.240 -42.304  1.00  0.00     0.209 HD
ENDBRANCH  18  19
ENDBRANCH   9  18
TORSDOF 4
ENDMDL
MODEL 9
REMARK VINA RESULT:      -4.8     29.848     31.852
REMARK  4 active torsions:
REMARK  status: ('A' for Active; 'I' for Inactive)
REMARK    1  A    between atoms: O2_2  and  C14_17 
REMARK    2  A    between atoms: O3_3  and  C15_18 
REMARK    3  A    between atoms: C7_10  and  C14_17 
REMARK    4  A    between atoms: C8_11  and  C15_18 
ROOT
HETATM    1  O1  UNK   900       8.716 -33.220 -72.407  1.00  0.00    -0.298 OA
HETATM    2  C1  UNK   900       6.115 -34.772 -73.879  1.00  0.00     0.026 C 
HETATM    3  C2  UNK   900       4.109 -35.976 -74.574  1.00  0.00    -0.043 C 
HETATM    4  C3  UNK   900       4.576 -34.724 -73.822  1.00  0.00     0.019 C 
HETATM    5  C4  UNK   900       6.412 -35.556 -75.149  1.00  0.00    -0.069 C 
HETATM    6  C5  UNK   900       5.104 -36.033 -75.744  1.00  0.00     0.043 C 
HETATM    7  C6  UNK   900       6.745 -33.376 -73.763  1.00  0.00     0.059 C 
HETATM    8  C7  UNK   900       7.637 -35.867 -75.629  1.00  0.00    -0.047 C 
HETATM    9  C8  UNK   900       8.956 -35.490 -74.958  1.00  0.00     0.047 C 
HETATM   10  C9  UNK   900       4.204 -37.232 -73.689  1.00  0.00     0.015 C 
HETATM   11  C10 UNK   900       2.668 -35.826 -75.073  1.00  0.00     0.015 C 
HETATM   12  C11 UNK   900       8.238 -33.503 -73.507  1.00  0.00     0.132 C 
HETATM   13  C12 UNK   900       9.123 -34.004 -74.628  1.00  0.00     0.089 C 
HETATM   14  C13 UNK   900       6.473 -32.423 -74.929  1.00  0.00     0.018 C 
ENDROOT
BRANCH   8  15
HETATM   15  C14 UNK   900       7.825 -36.659 -76.902  1.00  0.00     0.199 C 
BRANCH  15  16
HETATM   16  O2  UNK   900       8.006 -35.770 -77.983  1.00  0.00    -0.397 OA
HETATM   17  H23 UNK   900       8.872 -35.344 -77.866  1.00  0.00     0.209 HD
ENDBRANCH  15  16
ENDBRANCH   8  15
BRANCH   9  18
HETATM   18  C15 UNK   900       9.261 -36.398 -73.761  1.00  0.00     0.173 C 
BRANCH  18  19
HETATM   19  O3  UNK   900       9.945 -37.541 -74.233  1.00  0.00    -0.400 OA
HETATM   20  H24 UNK   900      10.518 -37.253 -74.964  1.00  0.00     0.209 HD
ENDBRANCH  18  19
ENDBRANCH   9  18
TORSDOF 4
ENDMDL
