MODEL 1
REMARK VINA RESULT:      -8.4      0.000      0.000
REMARK  7 active torsions:
REMARK  status: ('A' for Active; 'I' for Inactive)
REMARK    1  A    between atoms: O1_1  and  C2_10 
REMARK    2  A    between atoms: O1_1  and  C12_20 
REMARK    3  A    between atoms: O7_7  and  C26_34 
REMARK       I    between atoms: N1_8  and  C16_24 
REMARK    4  A    between atoms: C3_11  and  C12_20 
REMARK    5  A    between atoms: C11_19  and  C19_27 
REMARK    6  A    between atoms: C16_24  and  C17_25 
REMARK    7  A    between atoms: C17_25  and  C18_26 
ROOT
HETATM    1  O3  UNK   900      32.656 -44.701 -60.303  1.00  0.00    -0.263 OA
HETATM    2  C12 UNK   900      33.128 -45.508 -61.092  1.00  0.00     0.282 C 
ENDROOT
BRANCH   2   3
HETATM    3  O1  UNK   900      32.850 -46.840 -61.150  1.00  0.00    -0.312 OA
BRANCH   3   4
HETATM    4  C2  UNK   900      31.544 -47.215 -60.701  1.00  0.00     0.156 C 
HETATM    5  C1  UNK   900      31.562 -48.590 -60.012  1.00  0.00     0.075 C 
HETATM    6  C4  UNK   900      32.252 -49.662 -60.829  1.00  0.00    -0.033 C 
HETATM    7  C9  UNK   900      32.488 -48.575 -58.805  1.00  0.00     0.165 C 
HETATM    8  C10 UNK   900      30.178 -49.036 -59.518  1.00  0.00     0.032 C 
HETATM    9  C11 UNK   900      33.298 -50.272 -60.021  1.00  0.00    -0.047 C 
HETATM   10  C15 UNK   900      32.017 -49.937 -62.120  1.00  0.00     0.009 C 
HETATM   11  C13 UNK   900      33.469 -49.667 -58.843  1.00  0.00     0.059 C 
HETATM   12  C20 UNK   900      31.031 -49.335 -62.987  1.00  0.00     0.003 C 
HETATM   13  C14 UNK   900      30.417 -48.141 -62.918  1.00  0.00    -0.081 C 
HETATM   14  C6  UNK   900      30.545 -47.065 -61.858  1.00  0.00     0.068 C 
HETATM   15  C22 UNK   900      29.431 -47.771 -64.005  1.00  0.00     0.043 C 
HETATM   16  O2  UNK   900      32.430 -47.780 -57.879  1.00  0.00    -0.292 OA
BRANCH   9  17
HETATM   17  C19 UNK   900      34.106 -51.441 -60.480  1.00  0.00     0.035 C 
HETATM   18  C25 UNK   900      34.547 -52.317 -59.320  1.00  0.00     0.010 C 
ENDBRANCH   9  17
ENDBRANCH   3   4
ENDBRANCH   2   3
BRANCH   2  19
HETATM   19  C3  UNK   900      34.118 -45.157 -62.161  1.00  0.00     0.187 C 
HETATM   20  N1  UNK   900      33.619 -43.966 -62.836  1.00  0.00    -0.338 N 
HETATM   21  C8  UNK   900      34.411 -42.790 -62.485  1.00  0.00     0.127 C 
HETATM   22  C16 UNK   900      32.621 -44.019 -63.797  1.00  0.00     0.221 C 
HETATM   23  C7  UNK   900      35.281 -43.238 -61.320  1.00  0.00     0.022 C 
HETATM   24  C5  UNK   900      35.460 -44.733 -61.573  1.00  0.00     0.037 C 
HETATM   25  O5  UNK   900      31.973 -45.031 -64.067  1.00  0.00    -0.273 OA
BRANCH  22  26
HETATM   26  C17 UNK   900      32.347 -42.725 -64.520  1.00  0.00     0.117 C 
BRANCH  26  27
HETATM   27  C18 UNK   900      32.582 -42.864 -66.020  1.00  0.00     0.088 C 
HETATM   28  C21 UNK   900      31.318 -43.280 -66.768  1.00  0.00     0.183 C 
HETATM   29  O4  UNK   900      30.335 -42.244 -66.752  1.00  0.00    -0.360 OA
HETATM   30  C26 UNK   900      30.770 -41.064 -67.432  1.00  0.00     0.263 C 
HETATM   31  C24 UNK   900      32.026 -40.471 -66.803  1.00  0.00     0.139 C 
HETATM   32  C23 UNK   900      33.072 -41.544 -66.583  1.00  0.00     0.138 C 
HETATM   33  O6  UNK   900      34.269 -41.319 -66.752  1.00  0.00    -0.297 OA
BRANCH  30  34
HETATM   34  O7  UNK   900      30.930 -41.258 -68.835  1.00  0.00    -0.371 OA
HETATM   35  H33 UNK   900      30.380 -40.592 -69.282  1.00  0.00     0.212 HD
ENDBRANCH  30  34
ENDBRANCH  26  27
ENDBRANCH  22  26
ENDBRANCH   2  19
TORSDOF 7
ENDMDL
MODEL 2
REMARK VINA RESULT:      -7.8     34.036     37.506
REMARK  7 active torsions:
REMARK  status: ('A' for Active; 'I' for Inactive)
REMARK    1  A    between atoms: O1_1  and  C2_10 
REMARK    2  A    between atoms: O1_1  and  C12_20 
REMARK    3  A    between atoms: O7_7  and  C26_34 
REMARK       I    between atoms: N1_8  and  C16_24 
REMARK    4  A    between atoms: C3_11  and  C12_20 
REMARK    5  A    between atoms: C11_19  and  C19_27 
REMARK    6  A    between atoms: C16_24  and  C17_25 
REMARK    7  A    between atoms: C17_25  and  C18_26 
ROOT
HETATM    1  O3  UNK   900       6.206 -65.823 -47.481  1.00  0.00    -0.263 OA
HETATM    2  C12 UNK   900       5.909 -66.969 -47.791  1.00  0.00     0.282 C 
ENDROOT
BRANCH   2   3
HETATM    3  O1  UNK   900       6.556 -67.757 -48.695  1.00  0.00    -0.312 OA
BRANCH   3   4
HETATM    4  C2  UNK   900       7.754 -67.201 -49.247  1.00  0.00     0.156 C 
HETATM    5  C1  UNK   900       7.716 -67.206 -50.784  1.00  0.00     0.075 C 
HETATM    6  C4  UNK   900       7.348 -68.552 -51.371  1.00  0.00    -0.033 C 
HETATM    7  C9  UNK   900       6.540 -66.390 -51.298  1.00  0.00     0.165 C 
HETATM    8  C10 UNK   900       8.987 -66.623 -51.421  1.00  0.00     0.032 C 
HETATM    9  C11 UNK   900       6.210 -68.383 -52.264  1.00  0.00    -0.047 C 
HETATM   10  C15 UNK   900       7.903 -69.729 -51.045  1.00  0.00     0.009 C 
HETATM   11  C13 UNK   900       5.710 -67.144 -52.246  1.00  0.00     0.059 C 
HETATM   12  C20 UNK   900       8.995 -69.968 -50.132  1.00  0.00     0.003 C 
HETATM   13  C14 UNK   900       9.452 -69.234 -49.101  1.00  0.00    -0.081 C 
HETATM   14  C6  UNK   900       8.973 -67.883 -48.609  1.00  0.00     0.068 C 
HETATM   15  C22 UNK   900      10.621 -69.764 -48.299  1.00  0.00     0.043 C 
HETATM   16  O2  UNK   900       6.300 -65.229 -50.999  1.00  0.00    -0.292 OA
BRANCH   9  17
HETATM   17  C19 UNK   900       5.654 -69.491 -53.096  1.00  0.00     0.035 C 
HETATM   18  C25 UNK   900       4.327 -69.995 -52.556  1.00  0.00     0.010 C 
ENDBRANCH   9  17
ENDBRANCH   3   4
ENDBRANCH   2   3
BRANCH   2  19
HETATM   19  C3  UNK   900       4.751 -67.723 -47.210  1.00  0.00     0.187 C 
HETATM   20  N1  UNK   900       3.625 -67.549 -48.118  1.00  0.00    -0.338 N 
HETATM   21  C8  UNK   900       3.346 -68.780 -48.853  1.00  0.00     0.127 C 
HETATM   22  C16 UNK   900       2.851 -66.400 -48.133  1.00  0.00     0.221 C 
HETATM   23  C7  UNK   900       4.541 -69.681 -48.573  1.00  0.00     0.022 C 
HETATM   24  C5  UNK   900       5.006 -69.226 -47.192  1.00  0.00     0.037 C 
HETATM   25  O5  UNK   900       3.117 -65.378 -47.498  1.00  0.00    -0.273 OA
BRANCH  22  26
HETATM   26  C17 UNK   900       1.623 -66.455 -49.006  1.00  0.00     0.117 C 
BRANCH  26  27
HETATM   27  C18 UNK   900       1.681 -65.412 -50.117  1.00  0.00     0.088 C 
HETATM   28  C21 UNK   900       2.782 -65.709 -51.132  1.00  0.00     0.183 C 
HETATM   29  O4  UNK   900       2.492 -66.884 -51.890  1.00  0.00    -0.360 OA
HETATM   30  C26 UNK   900       1.311 -66.747 -52.686  1.00  0.00     0.263 C 
HETATM   31  C24 UNK   900       0.077 -66.471 -51.834  1.00  0.00     0.139 C 
HETATM   32  C23 UNK   900       0.348 -65.364 -50.839  1.00  0.00     0.138 C 
HETATM   33  O6  UNK   900      -0.510 -64.530 -50.554  1.00  0.00    -0.297 OA
BRANCH  30  34
HETATM   34  O7  UNK   900       1.453 -65.784 -53.728  1.00  0.00    -0.371 OA
HETATM   35  H33 UNK   900       2.338 -65.393 -53.639  1.00  0.00     0.212 HD
ENDBRANCH  30  34
ENDBRANCH  26  27
ENDBRANCH  22  26
ENDBRANCH   2  19
TORSDOF 7
ENDMDL
MODEL 3
REMARK VINA RESULT:      -7.6      2.951      4.380
REMARK  7 active torsions:
REMARK  status: ('A' for Active; 'I' for Inactive)
REMARK    1  A    between atoms: O1_1  and  C2_10 
REMARK    2  A    between atoms: O1_1  and  C12_20 
REMARK    3  A    between atoms: O7_7  and  C26_34 
REMARK       I    between atoms: N1_8  and  C16_24 
REMARK    4  A    between atoms: C3_11  and  C12_20 
REMARK    5  A    between atoms: C11_19  and  C19_27 
REMARK    6  A    between atoms: C16_24  and  C17_25 
REMARK    7  A    between atoms: C17_25  and  C18_26 
ROOT
HETATM    1  O3  UNK   900      37.052 -49.113 -62.573  1.00  0.00    -0.263 OA
HETATM    2  C12 UNK   900      36.069 -48.590 -63.082  1.00  0.00     0.282 C 
ENDROOT
BRANCH   2   3
HETATM    3  O1  UNK   900      34.827 -48.496 -62.531  1.00  0.00    -0.312 OA
BRANCH   3   4
HETATM    4  C2  UNK   900      34.796 -48.252 -61.122  1.00  0.00     0.156 C 
HETATM    5  C1  UNK   900      33.532 -48.844 -60.478  1.00  0.00     0.075 C 
HETATM    6  C4  UNK   900      32.255 -48.449 -61.188  1.00  0.00    -0.033 C 
HETATM    7  C9  UNK   900      33.471 -50.349 -60.695  1.00  0.00     0.165 C 
HETATM    8  C10 UNK   900      33.455 -48.600 -58.963  1.00  0.00     0.032 C 
HETATM    9  C11 UNK   900      31.519 -49.654 -61.544  1.00  0.00    -0.047 C 
HETATM   10  C15 UNK   900      31.903 -47.201 -61.532  1.00  0.00     0.009 C 
HETATM   11  C13 UNK   900      32.193 -50.776 -61.279  1.00  0.00     0.059 C 
HETATM   12  C20 UNK   900      32.610 -45.975 -61.253  1.00  0.00     0.003 C 
HETATM   13  C14 UNK   900      33.911 -45.754 -60.990  1.00  0.00    -0.081 C 
HETATM   14  C6  UNK   900      35.039 -46.759 -60.859  1.00  0.00     0.068 C 
HETATM   15  C22 UNK   900      34.371 -44.331 -60.758  1.00  0.00     0.043 C 
HETATM   16  O2  UNK   900      34.354 -51.142 -60.401  1.00  0.00    -0.292 OA
BRANCH   9  17
HETATM   17  C19 UNK   900      30.160 -49.627 -62.162  1.00  0.00     0.035 C 
HETATM   18  C25 UNK   900      29.064 -49.838 -61.131  1.00  0.00     0.010 C 
ENDBRANCH   9  17
ENDBRANCH   3   4
ENDBRANCH   2   3
BRANCH   2  19
HETATM   19  C3  UNK   900      36.067 -47.944 -64.434  1.00  0.00     0.187 C 
HETATM   20  N1  UNK   900      34.890 -47.088 -64.500  1.00  0.00    -0.338 N 
HETATM   21  C8  UNK   900      35.259 -45.676 -64.434  1.00  0.00     0.127 C 
HETATM   22  C16 UNK   900      33.621 -47.586 -64.752  1.00  0.00     0.221 C 
HETATM   23  C7  UNK   900      36.728 -45.675 -64.036  1.00  0.00     0.022 C 
HETATM   24  C5  UNK   900      37.246 -46.992 -64.608  1.00  0.00     0.037 C 
HETATM   25  O5  UNK   900      33.346 -48.786 -64.802  1.00  0.00    -0.273 OA
BRANCH  22  26
HETATM   26  C17 UNK   900      32.546 -46.550 -64.963  1.00  0.00     0.117 C 
BRANCH  26  27
HETATM   27  C18 UNK   900      31.334 -47.141 -65.674  1.00  0.00     0.088 C 
HETATM   28  C21 UNK   900      30.104 -47.198 -64.771  1.00  0.00     0.183 C 
HETATM   29  O4  UNK   900      29.617 -45.890 -64.467  1.00  0.00    -0.360 OA
HETATM   30  C26 UNK   900      29.166 -45.188 -65.629  1.00  0.00     0.263 C 
HETATM   31  C24 UNK   900      30.280 -45.003 -66.654  1.00  0.00     0.139 C 
HETATM   32  C23 UNK   900      31.006 -46.308 -66.898  1.00  0.00     0.138 C 
HETATM   33  O6  UNK   900      31.403 -46.624 -68.019  1.00  0.00    -0.297 OA
BRANCH  30  34
HETATM   34  O7  UNK   900      28.007 -45.774 -66.217  1.00  0.00    -0.371 OA
HETATM   35  H33 UNK   900      27.482 -46.159 -65.495  1.00  0.00     0.212 HD
ENDBRANCH  30  34
ENDBRANCH  26  27
ENDBRANCH  22  26
ENDBRANCH   2  19
TORSDOF 7
ENDMDL
MODEL 4
REMARK VINA RESULT:      -7.5      9.999     12.179
REMARK  7 active torsions:
REMARK  status: ('A' for Active; 'I' for Inactive)
REMARK    1  A    between atoms: O1_1  and  C2_10 
REMARK    2  A    between atoms: O1_1  and  C12_20 
REMARK    3  A    between atoms: O7_7  and  C26_34 
REMARK       I    between atoms: N1_8  and  C16_24 
REMARK    4  A    between atoms: C3_11  and  C12_20 
REMARK    5  A    between atoms: C11_19  and  C19_27 
REMARK    6  A    between atoms: C16_24  and  C17_25 
REMARK    7  A    between atoms: C17_25  and  C18_26 
ROOT
HETATM    1  O3  UNK   900      39.775 -39.370 -59.255  1.00  0.00    -0.263 OA
HETATM    2  C12 UNK   900      38.956 -38.504 -58.974  1.00  0.00     0.282 C 
ENDROOT
BRANCH   2   3
HETATM    3  O1  UNK   900      38.102 -38.512 -57.913  1.00  0.00    -0.312 OA
BRANCH   3   4
HETATM    4  C2  UNK   900      38.598 -39.144 -56.729  1.00  0.00     0.156 C 
HETATM    5  C1  UNK   900      37.470 -39.395 -55.714  1.00  0.00     0.075 C 
HETATM    6  C4  UNK   900      36.628 -38.168 -55.437  1.00  0.00    -0.033 C 
HETATM    7  C9  UNK   900      36.398 -40.293 -56.311  1.00  0.00     0.165 C 
HETATM    8  C10 UNK   900      37.960 -40.068 -54.422  1.00  0.00     0.032 C 
HETATM    9  C11 UNK   900      35.229 -38.492 -55.677  1.00  0.00    -0.047 C 
HETATM   10  C15 UNK   900      37.094 -36.950 -55.125  1.00  0.00     0.009 C 
HETATM   11  C13 UNK   900      35.054 -39.713 -56.189  1.00  0.00     0.059 C 
HETATM   12  C20 UNK   900      38.468 -36.555 -54.923  1.00  0.00     0.003 C 
HETATM   13  C14 UNK   900      39.612 -37.103 -55.370  1.00  0.00    -0.081 C 
HETATM   14  C6  UNK   900      39.806 -38.357 -56.200  1.00  0.00     0.068 C 
HETATM   15  C22 UNK   900      40.922 -36.439 -55.006  1.00  0.00     0.043 C 
HETATM   16  O2  UNK   900      36.593 -41.390 -56.815  1.00  0.00    -0.292 OA
BRANCH   9  17
HETATM   17  C19 UNK   900      34.112 -37.541 -55.397  1.00  0.00     0.035 C 
HETATM   18  C25 UNK   900      33.187 -37.385 -56.591  1.00  0.00     0.010 C 
ENDBRANCH   9  17
ENDBRANCH   3   4
ENDBRANCH   2   3
BRANCH   2  19
HETATM   19  C3  UNK   900      38.753 -37.252 -59.771  1.00  0.00     0.187 C 
HETATM   20  N1  UNK   900      37.910 -36.368 -58.976  1.00  0.00    -0.338 N 
HETATM   21  C8  UNK   900      38.678 -35.246 -58.443  1.00  0.00     0.127 C 
HETATM   22  C16 UNK   900      36.535 -36.524 -58.896  1.00  0.00     0.221 C 
HETATM   23  C7  UNK   900      40.133 -35.609 -58.706  1.00  0.00     0.022 C 
HETATM   24  C5  UNK   900      40.055 -36.481 -59.957  1.00  0.00     0.037 C 
HETATM   25  O5  UNK   900      35.919 -37.485 -59.359  1.00  0.00    -0.273 OA
BRANCH  22  26
HETATM   26  C17 UNK   900      35.798 -35.423 -58.177  1.00  0.00     0.117 C 
BRANCH  26  27
HETATM   27  C18 UNK   900      34.872 -34.663 -59.122  1.00  0.00     0.088 C 
HETATM   28  C21 UNK   900      33.698 -34.020 -58.388  1.00  0.00     0.183 C 
HETATM   29  O4  UNK   900      34.131 -32.958 -57.536  1.00  0.00    -0.360 OA
HETATM   30  C26 UNK   900      34.723 -31.878 -58.262  1.00  0.00     0.263 C 
HETATM   31  C24 UNK   900      35.951 -32.323 -59.050  1.00  0.00     0.139 C 
HETATM   32  C23 UNK   900      35.655 -33.580 -59.839  1.00  0.00     0.138 C 
HETATM   33  O6  UNK   900      36.116 -33.756 -60.966  1.00  0.00    -0.297 OA
BRANCH  30  34
HETATM   34  O7  UNK   900      33.791 -31.190 -59.093  1.00  0.00    -0.371 OA
HETATM   35  H33 UNK   900      33.276 -31.865 -59.566  1.00  0.00     0.212 HD
ENDBRANCH  30  34
ENDBRANCH  26  27
ENDBRANCH  22  26
ENDBRANCH   2  19
TORSDOF 7
ENDMDL
MODEL 5
REMARK VINA RESULT:      -7.4     34.108     37.378
REMARK  7 active torsions:
REMARK  status: ('A' for Active; 'I' for Inactive)
REMARK    1  A    between atoms: O1_1  and  C2_10 
REMARK    2  A    between atoms: O1_1  and  C12_20 
REMARK    3  A    between atoms: O7_7  and  C26_34 
REMARK       I    between atoms: N1_8  and  C16_24 
REMARK    4  A    between atoms: C3_11  and  C12_20 
REMARK    5  A    between atoms: C11_19  and  C19_27 
REMARK    6  A    between atoms: C16_24  and  C17_25 
REMARK    7  A    between atoms: C17_25  and  C18_26 
ROOT
HETATM    1  O3  UNK   900       4.132 -70.320 -48.572  1.00  0.00    -0.263 OA
HETATM    2  C12 UNK   900       4.719 -69.261 -48.396  1.00  0.00     0.282 C 
ENDROOT
BRANCH   2   3
HETATM    3  O1  UNK   900       4.923 -68.284 -49.323  1.00  0.00    -0.312 OA
BRANCH   3   4
HETATM    4  C2  UNK   900       4.670 -68.662 -50.680  1.00  0.00     0.156 C 
HETATM    5  C1  UNK   900       5.945 -68.563 -51.535  1.00  0.00     0.075 C 
HETATM    6  C4  UNK   900       6.656 -67.234 -51.400  1.00  0.00    -0.033 C 
HETATM    7  C9  UNK   900       7.033 -69.474 -50.988  1.00  0.00     0.165 C 
HETATM    8  C10 UNK   900       5.718 -68.956 -53.003  1.00  0.00     0.032 C 
HETATM    9  C11 UNK   900       8.041 -67.475 -51.020  1.00  0.00    -0.047 C 
HETATM   10  C15 UNK   900       6.086 -66.025 -51.507  1.00  0.00     0.009 C 
HETATM   11  C13 UNK   900       8.298 -68.761 -50.767  1.00  0.00     0.059 C 
HETATM   12  C20 UNK   900       4.712 -65.721 -51.831  1.00  0.00     0.003 C 
HETATM   13  C14 UNK   900       3.597 -66.461 -51.701  1.00  0.00    -0.081 C 
HETATM   14  C6  UNK   900       3.454 -67.887 -51.207  1.00  0.00     0.068 C 
HETATM   15  C22 UNK   900       2.273 -65.854 -52.112  1.00  0.00     0.043 C 
HETATM   16  O2  UNK   900       6.912 -70.672 -50.774  1.00  0.00    -0.292 OA
BRANCH   9  17
HETATM   17  C19 UNK   900       9.057 -66.387 -50.906  1.00  0.00     0.035 C 
HETATM   18  C25 UNK   900       9.828 -66.464 -49.600  1.00  0.00     0.010 C 
ENDBRANCH   9  17
ENDBRANCH   3   4
ENDBRANCH   2   3
BRANCH   2  19
HETATM   19  C3  UNK   900       5.329 -68.847 -47.091  1.00  0.00     0.187 C 
HETATM   20  N1  UNK   900       6.774 -68.965 -47.234  1.00  0.00    -0.338 N 
HETATM   21  C8  UNK   900       7.405 -67.650 -47.315  1.00  0.00     0.127 C 
HETATM   22  C16 UNK   900       7.434 -70.179 -47.141  1.00  0.00     0.221 C 
HETATM   23  C7  UNK   900       6.252 -66.674 -47.500  1.00  0.00     0.022 C 
HETATM   24  C5  UNK   900       5.089 -67.370 -46.797  1.00  0.00     0.037 C 
HETATM   25  O5  UNK   900       6.868 -71.272 -47.073  1.00  0.00    -0.273 OA
BRANCH  22  26
HETATM   26  C17 UNK   900       8.940 -70.102 -47.136  1.00  0.00     0.117 C 
BRANCH  26  27
HETATM   27  C18 UNK   900       9.548 -70.993 -48.214  1.00  0.00     0.088 C 
HETATM   28  C21 UNK   900      10.681 -70.299 -48.966  1.00  0.00     0.183 C 
HETATM   29  O4  UNK   900      11.818 -70.093 -48.126  1.00  0.00    -0.360 OA
HETATM   30  C26 UNK   900      12.397 -71.320 -47.674  1.00  0.00     0.263 C 
HETATM   31  C24 UNK   900      11.411 -72.154 -46.864  1.00  0.00     0.139 C 
HETATM   32  C23 UNK   900      10.083 -72.263 -47.582  1.00  0.00     0.138 C 
HETATM   33  O6  UNK   900       9.424 -73.301 -47.563  1.00  0.00    -0.297 OA
BRANCH  30  34
HETATM   34  O7  UNK   900      12.980 -72.080 -48.730  1.00  0.00    -0.371 OA
HETATM   35  H33 UNK   900      13.556 -71.480 -49.233  1.00  0.00     0.212 HD
ENDBRANCH  30  34
ENDBRANCH  26  27
ENDBRANCH  22  26
ENDBRANCH   2  19
TORSDOF 7
ENDMDL
MODEL 6
REMARK VINA RESULT:      -7.3      2.549      4.366
REMARK  7 active torsions:
REMARK  status: ('A' for Active; 'I' for Inactive)
REMARK    1  A    between atoms: O1_1  and  C2_10 
REMARK    2  A    between atoms: O1_1  and  C12_20 
REMARK    3  A    between atoms: O7_7  and  C26_34 
REMARK       I    between atoms: N1_8  and  C16_24 
REMARK    4  A    between atoms: C3_11  and  C12_20 
REMARK    5  A    between atoms: C11_19  and  C19_27 
REMARK    6  A    between atoms: C16_24  and  C17_25 
REMARK    7  A    between atoms: C17_25  and  C18_26 
ROOT
HETATM    1  O3  UNK   900      35.286 -49.774 -64.801  1.00  0.00    -0.263 OA
HETATM    2  C12 UNK   900      34.767 -48.668 -64.879  1.00  0.00     0.282 C 
ENDROOT
BRANCH   2   3
HETATM    3  O1  UNK   900      33.789 -48.174 -64.068  1.00  0.00    -0.312 OA
BRANCH   3   4
HETATM    4  C2  UNK   900      33.881 -48.556 -62.692  1.00  0.00     0.156 C 
HETATM    5  C1  UNK   900      32.518 -48.449 -61.989  1.00  0.00     0.075 C 
HETATM    6  C4  UNK   900      31.837 -47.114 -62.203  1.00  0.00    -0.033 C 
HETATM    7  C9  UNK   900      31.493 -49.351 -62.660  1.00  0.00     0.165 C 
HETATM    8  C10 UNK   900      32.570 -48.845 -60.506  1.00  0.00     0.032 C 
HETATM    9  C11 UNK   900      30.503 -47.344 -62.740  1.00  0.00    -0.047 C 
HETATM   10  C15 UNK   900      32.399 -45.909 -62.028  1.00  0.00     0.009 C 
HETATM   11  C13 UNK   900      30.268 -48.628 -63.024  1.00  0.00     0.059 C 
HETATM   12  C20 UNK   900      33.728 -45.616 -61.547  1.00  0.00     0.003 C 
HETATM   13  C14 UNK   900      34.846 -46.365 -61.549  1.00  0.00    -0.081 C 
HETATM   14  C6  UNK   900      35.034 -47.791 -62.027  1.00  0.00     0.068 C 
HETATM   15  C22 UNK   900      36.118 -45.768 -60.987  1.00  0.00     0.043 C 
HETATM   16  O2  UNK   900      31.629 -50.549 -62.861  1.00  0.00    -0.292 OA
BRANCH   9  17
HETATM   17  C19 UNK   900      29.515 -46.248 -62.968  1.00  0.00     0.035 C 
HETATM   18  C25 UNK   900      29.305 -45.972 -64.446  1.00  0.00     0.010 C 
ENDBRANCH   9  17
ENDBRANCH   3   4
ENDBRANCH   2   3
BRANCH   2  19
HETATM   19  C3  UNK   900      35.132 -47.639 -65.906  1.00  0.00     0.187 C 
HETATM   20  N1  UNK   900      34.468 -46.399 -65.527  1.00  0.00    -0.338 N 
HETATM   21  C8  UNK   900      35.425 -45.424 -65.012  1.00  0.00     0.127 C 
HETATM   22  C16 UNK   900      33.127 -46.163 -65.788  1.00  0.00     0.221 C 
HETATM   23  C7  UNK   900      36.714 -46.209 -64.814  1.00  0.00     0.022 C 
HETATM   24  C5  UNK   900      36.620 -47.307 -65.870  1.00  0.00     0.037 C 
HETATM   25  O5  UNK   900      32.347 -47.011 -66.225  1.00  0.00    -0.273 OA
BRANCH  22  26
HETATM   26  C17 UNK   900      32.644 -44.766 -65.492  1.00  0.00     0.117 C 
BRANCH  26  27
HETATM   27  C18 UNK   900      32.632 -43.902 -66.749  1.00  0.00     0.088 C 
HETATM   28  C21 UNK   900      31.221 -43.687 -67.290  1.00  0.00     0.183 C 
HETATM   29  O4  UNK   900      30.439 -42.879 -66.410  1.00  0.00    -0.360 OA
HETATM   30  C26 UNK   900      30.964 -41.556 -66.267  1.00  0.00     0.263 C 
HETATM   31  C24 UNK   900      32.380 -41.560 -65.702  1.00  0.00     0.139 C 
HETATM   32  C23 UNK   900      33.251 -42.552 -66.443  1.00  0.00     0.138 C 
HETATM   33  O6  UNK   900      34.432 -42.313 -66.691  1.00  0.00    -0.297 OA
BRANCH  30  34
HETATM   34  O7  UNK   900      30.884 -40.795 -67.470  1.00  0.00    -0.371 OA
HETATM   35  H33 UNK   900      31.788 -40.714 -67.819  1.00  0.00     0.212 HD
ENDBRANCH  30  34
ENDBRANCH  26  27
ENDBRANCH  22  26
ENDBRANCH   2  19
TORSDOF 7
ENDMDL
MODEL 7
REMARK VINA RESULT:      -7.0      9.933     12.789
REMARK  7 active torsions:
REMARK  status: ('A' for Active; 'I' for Inactive)
REMARK    1  A    between atoms: O1_1  and  C2_10 
REMARK    2  A    between atoms: O1_1  and  C12_20 
REMARK    3  A    between atoms: O7_7  and  C26_34 
REMARK       I    between atoms: N1_8  and  C16_24 
REMARK    4  A    between atoms: C3_11  and  C12_20 
REMARK    5  A    between atoms: C11_19  and  C19_27 
REMARK    6  A    between atoms: C16_24  and  C17_25 
REMARK    7  A    between atoms: C17_25  and  C18_26 
ROOT
HETATM    1  O3  UNK   900      38.750 -39.252 -56.562  1.00  0.00    -0.263 OA
HETATM    2  C12 UNK   900      38.586 -39.394 -55.357  1.00  0.00     0.282 C 
ENDROOT
BRANCH   2   3
HETATM    3  O1  UNK   900      39.563 -39.474 -54.412  1.00  0.00    -0.312 OA
BRANCH   3   4
HETATM    4  C2  UNK   900      40.886 -39.698 -54.912  1.00  0.00     0.156 C 
HETATM    5  C1  UNK   900      41.516 -40.953 -54.285  1.00  0.00     0.075 C 
HETATM    6  C4  UNK   900      41.429 -40.977 -52.774  1.00  0.00    -0.033 C 
HETATM    7  C9  UNK   900      40.683 -42.187 -54.594  1.00  0.00     0.165 C 
HETATM    8  C10 UNK   900      42.941 -41.228 -54.790  1.00  0.00     0.032 C 
HETATM    9  C11 UNK   900      40.791 -42.219 -52.358  1.00  0.00    -0.047 C 
HETATM   10  C15 UNK   900      41.781 -39.979 -51.951  1.00  0.00     0.009 C 
HETATM   11  C13 UNK   900      40.340 -42.945 -53.384  1.00  0.00     0.059 C 
HETATM   12  C20 UNK   900      42.371 -38.709 -52.304  1.00  0.00     0.003 C 
HETATM   13  C14 UNK   900      42.342 -38.021 -53.460  1.00  0.00    -0.081 C 
HETATM   14  C6  UNK   900      41.705 -38.406 -54.781  1.00  0.00     0.068 C 
HETATM   15  C22 UNK   900      43.044 -36.682 -53.522  1.00  0.00     0.043 C 
HETATM   16  O2  UNK   900      40.345 -42.551 -55.711  1.00  0.00    -0.292 OA
BRANCH   9  17
HETATM   17  C19 UNK   900      40.642 -42.619 -50.927  1.00  0.00     0.035 C 
HETATM   18  C25 UNK   900      41.679 -43.649 -50.516  1.00  0.00     0.010 C 
ENDBRANCH   9  17
ENDBRANCH   3   4
ENDBRANCH   2   3
BRANCH   2  19
HETATM   19  C3  UNK   900      37.244 -39.505 -54.700  1.00  0.00     0.187 C 
HETATM   20  N1  UNK   900      36.313 -38.707 -55.487  1.00  0.00    -0.338 N 
HETATM   21  C8  UNK   900      35.399 -39.559 -56.245  1.00  0.00     0.127 C 
HETATM   22  C16 UNK   900      36.237 -37.328 -55.377  1.00  0.00     0.221 C 
HETATM   23  C7  UNK   900      35.978 -40.961 -56.120  1.00  0.00     0.022 C 
HETATM   24  C5  UNK   900      36.694 -40.925 -54.772  1.00  0.00     0.037 C 
HETATM   25  O5  UNK   900      37.027 -36.641 -54.727  1.00  0.00    -0.273 OA
BRANCH  22  26
HETATM   26  C17 UNK   900      35.103 -36.678 -56.129  1.00  0.00     0.117 C 
BRANCH  26  27
HETATM   27  C18 UNK   900      35.504 -36.340 -57.561  1.00  0.00     0.088 C 
HETATM   28  C21 UNK   900      34.367 -36.576 -58.551  1.00  0.00     0.183 C 
HETATM   29  O4  UNK   900      33.299 -35.649 -58.353  1.00  0.00    -0.360 OA
HETATM   30  C26 UNK   900      33.694 -34.296 -58.592  1.00  0.00     0.263 C 
HETATM   31  C24 UNK   900      34.820 -33.856 -57.663  1.00  0.00     0.139 C 
HETATM   32  C23 UNK   900      35.930 -34.886 -57.640  1.00  0.00     0.138 C 
HETATM   33  O6  UNK   900      37.113 -34.556 -57.582  1.00  0.00    -0.297 OA
BRANCH  30  34
HETATM   34  O7  UNK   900      34.016 -34.044 -59.958  1.00  0.00    -0.371 OA
HETATM   35  H33 UNK   900      33.474 -34.645 -60.496  1.00  0.00     0.212 HD
ENDBRANCH  30  34
ENDBRANCH  26  27
ENDBRANCH  22  26
ENDBRANCH   2  19
TORSDOF 7
ENDMDL
MODEL 8
REMARK VINA RESULT:      -6.8     28.590     32.585
REMARK  7 active torsions:
REMARK  status: ('A' for Active; 'I' for Inactive)
REMARK    1  A    between atoms: O1_1  and  C2_10 
REMARK    2  A    between atoms: O1_1  and  C12_20 
REMARK    3  A    between atoms: O7_7  and  C26_34 
REMARK       I    between atoms: N1_8  and  C16_24 
REMARK    4  A    between atoms: C3_11  and  C12_20 
REMARK    5  A    between atoms: C11_19  and  C19_27 
REMARK    6  A    between atoms: C16_24  and  C17_25 
REMARK    7  A    between atoms: C17_25  and  C18_26 
ROOT
HETATM    1  O3  UNK   900      11.879 -28.823 -77.839  1.00  0.00    -0.263 OA
HETATM    2  C12 UNK   900      10.740 -28.446 -77.595  1.00  0.00     0.282 C 
ENDROOT
BRANCH   2   3
HETATM    3  O1  UNK   900      10.034 -28.688 -76.456  1.00  0.00    -0.312 OA
BRANCH   3   4
HETATM    4  C2  UNK   900      10.257 -27.764 -75.387  1.00  0.00     0.156 C 
HETATM    5  C1  UNK   900      10.661 -28.491 -74.094  1.00  0.00     0.075 C 
HETATM    6  C4  UNK   900       9.730 -29.627 -73.728  1.00  0.00    -0.033 C 
HETATM    7  C9  UNK   900      11.941 -29.287 -74.301  1.00  0.00     0.165 C 
HETATM    8  C10 UNK   900      10.906 -27.536 -72.915  1.00  0.00     0.032 C 
HETATM    9  C11 UNK   900      10.512 -30.845 -73.562  1.00  0.00    -0.047 C 
HETATM   10  C15 UNK   900       8.392 -29.557 -73.667  1.00  0.00     0.009 C 
HETATM   11  C13 UNK   900      11.797 -30.690 -73.890  1.00  0.00     0.059 C 
HETATM   12  C20 UNK   900       7.559 -28.395 -73.869  1.00  0.00     0.003 C 
HETATM   13  C14 UNK   900       7.793 -27.255 -74.543  1.00  0.00    -0.081 C 
HETATM   14  C6  UNK   900       9.051 -26.821 -75.269  1.00  0.00     0.068 C 
HETATM   15  C22 UNK   900       6.700 -26.210 -74.599  1.00  0.00     0.043 C 
HETATM   16  O2  UNK   900      12.993 -28.836 -74.729  1.00  0.00    -0.292 OA
BRANCH   9  17
HETATM   17  C19 UNK   900       9.923 -32.135 -73.094  1.00  0.00     0.035 C 
HETATM   18  C25 UNK   900       9.477 -33.008 -74.253  1.00  0.00     0.010 C 
ENDBRANCH   9  17
ENDBRANCH   3   4
ENDBRANCH   2   3
BRANCH   2  19
HETATM   19  C3  UNK   900       9.908 -27.627 -78.535  1.00  0.00     0.187 C 
HETATM   20  N1  UNK   900      10.819 -26.769 -79.281  1.00  0.00    -0.338 N 
HETATM   21  C8  UNK   900      10.952 -27.217 -80.665  1.00  0.00     0.127 C 
HETATM   22  C16 UNK   900      11.344 -25.601 -78.751  1.00  0.00     0.221 C 
HETATM   23  C7  UNK   900      10.289 -28.587 -80.697  1.00  0.00     0.022 C 
HETATM   24  C5  UNK   900       9.235 -28.491 -79.596  1.00  0.00     0.037 C 
HETATM   25  O5  UNK   900      11.212 -25.254 -77.576  1.00  0.00    -0.273 OA
BRANCH  22  26
HETATM   26  C17 UNK   900      12.126 -24.744 -79.714  1.00  0.00     0.117 C 
BRANCH  26  27
HETATM   27  C18 UNK   900      11.386 -23.450 -80.036  1.00  0.00     0.088 C 
HETATM   28  C21 UNK   900      12.339 -22.314 -80.400  1.00  0.00     0.183 C 
HETATM   29  O4  UNK   900      12.993 -22.558 -81.645  1.00  0.00    -0.360 OA
HETATM   30  C26 UNK   900      12.080 -22.614 -82.745  1.00  0.00     0.263 C 
HETATM   31  C24 UNK   900      11.049 -23.725 -82.577  1.00  0.00     0.139 C 
HETATM   32  C23 UNK   900      10.435 -23.683 -81.194  1.00  0.00     0.138 C 
HETATM   33  O6  UNK   900       9.244 -23.929 -81.011  1.00  0.00    -0.297 OA
BRANCH  30  34
HETATM   34  O7  UNK   900      11.455 -21.360 -83.012  1.00  0.00    -0.371 OA
HETATM   35  H33 UNK   900      12.131 -20.781 -83.404  1.00  0.00     0.212 HD
ENDBRANCH  30  34
ENDBRANCH  26  27
ENDBRANCH  22  26
ENDBRANCH   2  19
TORSDOF 7
ENDMDL
MODEL 9
REMARK VINA RESULT:      -6.8      3.744      4.712
REMARK  7 active torsions:
REMARK  status: ('A' for Active; 'I' for Inactive)
REMARK    1  A    between atoms: O1_1  and  C2_10 
REMARK    2  A    between atoms: O1_1  and  C12_20 
REMARK    3  A    between atoms: O7_7  and  C26_34 
REMARK       I    between atoms: N1_8  and  C16_24 
REMARK    4  A    between atoms: C3_11  and  C12_20 
REMARK    5  A    between atoms: C11_19  and  C19_27 
REMARK    6  A    between atoms: C16_24  and  C17_25 
REMARK    7  A    between atoms: C17_25  and  C18_26 
ROOT
HETATM    1  O3  UNK   900      35.921 -49.437 -62.876  1.00  0.00    -0.263 OA
HETATM    2  C12 UNK   900      34.916 -48.865 -63.278  1.00  0.00     0.282 C 
ENDROOT
BRANCH   2   3
HETATM    3  O1  UNK   900      33.630 -49.145 -62.926  1.00  0.00    -0.312 OA
BRANCH   3   4
HETATM    4  C2  UNK   900      32.972 -48.138 -62.151  1.00  0.00     0.156 C 
HETATM    5  C1  UNK   900      32.579 -48.669 -60.762  1.00  0.00     0.075 C 
HETATM    6  C4  UNK   900      31.826 -49.981 -60.813  1.00  0.00    -0.033 C 
HETATM    7  C9  UNK   900      33.808 -49.126 -59.992  1.00  0.00     0.165 C 
HETATM    8  C10 UNK   900      31.863 -47.621 -59.896  1.00  0.00     0.032 C 
HETATM    9  C11 UNK   900      32.511 -50.952 -59.970  1.00  0.00    -0.047 C 
HETATM   10  C15 UNK   900      30.764 -50.247 -61.586  1.00  0.00     0.009 C 
HETATM   11  C13 UNK   900      33.667 -50.496 -59.480  1.00  0.00     0.059 C 
HETATM   12  C20 UNK   900      30.071 -49.347 -62.477  1.00  0.00     0.003 C 
HETATM   13  C14 UNK   900      30.490 -48.222 -63.085  1.00  0.00    -0.081 C 
HETATM   14  C6  UNK   900      31.832 -47.524 -62.976  1.00  0.00     0.068 C 
HETATM   15  C22 UNK   900      29.528 -47.492 -63.997  1.00  0.00     0.043 C 
HETATM   16  O2  UNK   900      34.803 -48.448 -59.779  1.00  0.00    -0.292 OA
BRANCH   9  17
HETATM   17  C19 UNK   900      31.978 -52.321 -59.704  1.00  0.00     0.035 C 
HETATM   18  C25 UNK   900      32.937 -53.151 -58.869  1.00  0.00     0.010 C 
ENDBRANCH   9  17
ENDBRANCH   3   4
ENDBRANCH   2   3
BRANCH   2  19
HETATM   19  C3  UNK   900      34.931 -47.725 -64.251  1.00  0.00     0.187 C 
HETATM   20  N1  UNK   900      36.138 -46.952 -63.989  1.00  0.00    -0.338 N 
HETATM   21  C8  UNK   900      37.128 -47.145 -65.046  1.00  0.00     0.127 C 
HETATM   22  C16 UNK   900      36.229 -46.045 -62.946  1.00  0.00     0.221 C 
HETATM   23  C7  UNK   900      36.599 -48.313 -65.867  1.00  0.00     0.022 C 
HETATM   24  C5  UNK   900      35.086 -48.209 -65.688  1.00  0.00     0.037 C 
HETATM   25  O5  UNK   900      35.373 -45.908 -62.070  1.00  0.00    -0.273 OA
BRANCH  22  26
HETATM   26  C17 UNK   900      37.480 -45.203 -62.923  1.00  0.00     0.117 C 
BRANCH  26  27
HETATM   27  C18 UNK   900      37.283 -43.890 -63.673  1.00  0.00     0.088 C 
HETATM   28  C21 UNK   900      36.166 -43.042 -63.071  1.00  0.00     0.183 C 
HETATM   29  O4  UNK   900      36.520 -42.553 -61.776  1.00  0.00    -0.360 OA
HETATM   30  C26 UNK   900      37.647 -41.674 -61.811  1.00  0.00     0.263 C 
HETATM   31  C24 UNK   900      38.891 -42.359 -62.365  1.00  0.00     0.139 C 
HETATM   32  C23 UNK   900      38.572 -43.093 -63.650  1.00  0.00     0.138 C 
HETATM   33  O6  UNK   900      39.368 -43.125 -64.587  1.00  0.00    -0.297 OA
BRANCH  30  34
HETATM   34  O7  UNK   900      37.377 -40.451 -62.493  1.00  0.00    -0.371 OA
HETATM   35  H33 UNK   900      36.682 -40.635 -63.148  1.00  0.00     0.212 HD
ENDBRANCH  30  34
ENDBRANCH  26  27
ENDBRANCH  22  26
ENDBRANCH   2  19
TORSDOF 7
ENDMDL
