MODEL 1
REMARK VINA RESULT:      -4.9      0.000      0.000
REMARK  5 active torsions:
REMARK  status: ('A' for Active; 'I' for Inactive)
REMARK    1  A    between atoms: N2_4  and  C5_9 
REMARK       I    between atoms: N2_4  and  C8_12 
REMARK    2  A    between atoms: C8_12  and  C9_13 
REMARK    3  A    between atoms: C9_13  and  C10_14 
REMARK    4  A    between atoms: C10_14  and  C11_15 
REMARK    5  A    between atoms: C11_15  and  C12_16 
ROOT
HETATM    1  O1  UNK   900      39.330 -38.780 -55.493  1.00  0.00    -0.291 OA
HETATM    2  N1  UNK   900      35.938 -39.462 -55.548  1.00  0.00    -0.355 N 
HETATM    3  C1  UNK   900      37.187 -39.735 -54.840  1.00  0.00     0.160 A 
HETATM    4  C2  UNK   900      37.356 -41.233 -55.003  1.00  0.00     0.035 C 
HETATM    5  C3  UNK   900      35.112 -40.654 -55.672  1.00  0.00     0.125 C 
HETATM    6  C4  UNK   900      35.910 -41.724 -54.918  1.00  0.00     0.022 C 
HETATM    7  C5  UNK   900      36.089 -38.466 -56.505  1.00  0.00     0.110 A 
HETATM    8  C6  UNK   900      38.118 -38.839 -55.625  1.00  0.00     0.175 A 
HETATM    9  C7  UNK   900      37.352 -38.015 -56.596  1.00  0.00     0.100 A 
ENDROOT
BRANCH   7  10
HETATM   10  N2  UNK   900      35.110 -37.990 -57.325  1.00  0.00    -0.313 N 
HETATM   11  C8  UNK   900      34.172 -37.042 -56.935  1.00  0.00     0.223 C 
HETATM   12  O2  UNK   900      34.105 -36.520 -55.825  1.00  0.00    -0.273 OA
HETATM   13  H9  UNK   900      35.211 -38.171 -58.321  1.00  0.00     0.170 HD
BRANCH  11  14
HETATM   14  C9  UNK   900      33.193 -36.735 -58.057  1.00  0.00     0.103 C 
BRANCH  14  15
HETATM   15  C10 UNK   900      32.778 -35.265 -58.128  1.00  0.00     0.009 C 
BRANCH  15  16
HETATM   16  C11 UNK   900      33.768 -34.418 -58.933  1.00  0.00     0.000 C 
BRANCH  16  17
HETATM   17  C12 UNK   900      34.537 -33.456 -58.027  1.00  0.00    -0.005 C 
HETATM   18  C13 UNK   900      35.947 -33.956 -57.753  1.00  0.00     0.005 C 
ENDBRANCH  16  17
ENDBRANCH  15  16
ENDBRANCH  14  15
ENDBRANCH  11  14
ENDBRANCH   7  10
TORSDOF 5
ENDMDL
MODEL 2
REMARK VINA RESULT:      -4.9      2.398      6.585
REMARK  5 active torsions:
REMARK  status: ('A' for Active; 'I' for Inactive)
REMARK    1  A    between atoms: N2_4  and  C5_9 
REMARK       I    between atoms: N2_4  and  C8_12 
REMARK    2  A    between atoms: C8_12  and  C9_13 
REMARK    3  A    between atoms: C9_13  and  C10_14 
REMARK    4  A    between atoms: C10_14  and  C11_15 
REMARK    5  A    between atoms: C11_15  and  C12_16 
ROOT
HETATM    1  O1  UNK   900      36.320 -35.686 -57.610  1.00  0.00    -0.291 OA
HETATM    2  N1  UNK   900      34.735 -38.476 -56.312  1.00  0.00    -0.355 N 
HETATM    3  C1  UNK   900      34.575 -37.340 -57.219  1.00  0.00     0.160 A 
HETATM    4  C2  UNK   900      33.427 -36.565 -56.604  1.00  0.00     0.035 C 
HETATM    5  C3  UNK   900      33.526 -38.728 -55.542  1.00  0.00     0.125 C 
HETATM    6  C4  UNK   900      32.534 -37.690 -56.078  1.00  0.00     0.022 C 
HETATM    7  C5  UNK   900      36.041 -38.596 -55.853  1.00  0.00     0.110 A 
HETATM    8  C6  UNK   900      35.959 -36.741 -57.111  1.00  0.00     0.175 A 
HETATM    9  C7  UNK   900      36.846 -37.620 -56.306  1.00  0.00     0.100 A 
ENDROOT
BRANCH   7  10
HETATM   10  N2  UNK   900      36.502 -39.551 -54.998  1.00  0.00    -0.313 N 
HETATM   11  C8  UNK   900      36.582 -40.901 -55.321  1.00  0.00     0.223 C 
HETATM   12  O2  UNK   900      36.254 -41.397 -56.396  1.00  0.00    -0.273 OA
HETATM   13  H9  UNK   900      37.014 -39.232 -54.179  1.00  0.00     0.170 HD
BRANCH  11  14
HETATM   14  C9  UNK   900      37.107 -41.721 -54.154  1.00  0.00     0.103 C 
BRANCH  14  15
HETATM   15  C10 UNK   900      38.379 -41.152 -53.524  1.00  0.00     0.009 C 
BRANCH  15  16
HETATM   16  C11 UNK   900      39.576 -42.095 -53.675  1.00  0.00     0.000 C 
BRANCH  16  17
HETATM   17  C12 UNK   900      40.597 -41.875 -52.558  1.00  0.00    -0.005 C 
HETATM   18  C13 UNK   900      40.697 -43.090 -51.648  1.00  0.00     0.005 C 
ENDBRANCH  16  17
ENDBRANCH  15  16
ENDBRANCH  14  15
ENDBRANCH  11  14
ENDBRANCH   7  10
TORSDOF 5
ENDMDL
MODEL 3
REMARK VINA RESULT:      -4.6      2.133      3.596
REMARK  5 active torsions:
REMARK  status: ('A' for Active; 'I' for Inactive)
REMARK    1  A    between atoms: N2_4  and  C5_9 
REMARK       I    between atoms: N2_4  and  C8_12 
REMARK    2  A    between atoms: C8_12  and  C9_13 
REMARK    3  A    between atoms: C9_13  and  C10_14 
REMARK    4  A    between atoms: C10_14  and  C11_15 
REMARK    5  A    between atoms: C11_15  and  C12_16 
ROOT
HETATM    1  O1  UNK   900      39.683 -42.215 -52.991  1.00  0.00    -0.291 OA
HETATM    2  N1  UNK   900      37.815 -41.714 -55.861  1.00  0.00    -0.355 N 
HETATM    3  C1  UNK   900      38.892 -42.510 -55.275  1.00  0.00     0.160 A 
HETATM    4  C2  UNK   900      40.084 -42.179 -56.152  1.00  0.00     0.035 C 
HETATM    5  C3  UNK   900      38.097 -41.354 -57.243  1.00  0.00     0.125 C 
HETATM    6  C4  UNK   900      39.433 -42.047 -57.530  1.00  0.00     0.022 C 
HETATM    7  C5  UNK   900      37.188 -40.911 -54.916  1.00  0.00     0.110 A 
HETATM    8  C6  UNK   900      38.881 -41.948 -53.872  1.00  0.00     0.175 A 
HETATM    9  C7  UNK   900      37.740 -41.013 -53.694  1.00  0.00     0.100 A 
ENDROOT
BRANCH   7  10
HETATM   10  N2  UNK   900      36.152 -40.058 -55.153  1.00  0.00    -0.313 N 
HETATM   11  C8  UNK   900      36.318 -38.742 -55.570  1.00  0.00     0.223 C 
HETATM   12  O2  UNK   900      37.395 -38.189 -55.774  1.00  0.00    -0.273 OA
HETATM   13  H9  UNK   900      35.226 -40.467 -55.244  1.00  0.00     0.170 HD
BRANCH  11  14
HETATM   14  C9  UNK   900      34.980 -38.035 -55.720  1.00  0.00     0.103 C 
BRANCH  14  15
HETATM   15  C10 UNK   900      35.101 -36.528 -55.943  1.00  0.00     0.009 C 
BRANCH  15  16
HETATM   16  C11 UNK   900      34.060 -35.999 -56.933  1.00  0.00     0.000 C 
BRANCH  16  17
HETATM   17  C12 UNK   900      32.836 -36.914 -56.990  1.00  0.00    -0.005 C 
HETATM   18  C13 UNK   900      32.034 -36.691 -58.264  1.00  0.00     0.005 C 
ENDBRANCH  16  17
ENDBRANCH  15  16
ENDBRANCH  14  15
ENDBRANCH  11  14
ENDBRANCH   7  10
TORSDOF 5
ENDMDL
MODEL 4
REMARK VINA RESULT:      -4.6     40.117     41.777
REMARK  5 active torsions:
REMARK  status: ('A' for Active; 'I' for Inactive)
REMARK    1  A    between atoms: N2_4  and  C5_9 
REMARK       I    between atoms: N2_4  and  C8_12 
REMARK    2  A    between atoms: C8_12  and  C9_13 
REMARK    3  A    between atoms: C9_13  and  C10_14 
REMARK    4  A    between atoms: C10_14  and  C11_15 
REMARK    5  A    between atoms: C11_15  and  C12_16 
ROOT
HETATM    1  O1  UNK   900       8.148 -69.711 -45.643  1.00  0.00    -0.291 OA
HETATM    2  N1  UNK   900       9.422 -69.950 -48.852  1.00  0.00    -0.355 N 
HETATM    3  C1  UNK   900       9.425 -70.573 -47.530  1.00  0.00     0.160 A 
HETATM    4  C2  UNK   900      10.876 -70.473 -47.104  1.00  0.00     0.035 C 
HETATM    5  C3  UNK   900      10.747 -69.950 -49.455  1.00  0.00     0.125 C 
HETATM    6  C4  UNK   900      11.609 -70.693 -48.428  1.00  0.00     0.022 C 
HETATM    7  C5  UNK   900       8.477 -68.936 -48.948  1.00  0.00     0.110 A 
HETATM    8  C6  UNK   900       8.429 -69.675 -46.831  1.00  0.00     0.175 A 
HETATM    9  C7  UNK   900       7.816 -68.726 -47.796  1.00  0.00     0.100 A 
ENDROOT
BRANCH   7  10
HETATM   10  N2  UNK   900       8.235 -68.170 -50.049  1.00  0.00    -0.313 N 
HETATM   11  C8  UNK   900       8.655 -66.851 -50.178  1.00  0.00     0.223 C 
HETATM   12  O2  UNK   900       9.285 -66.218 -49.335  1.00  0.00    -0.273 OA
HETATM   13  H9  UNK   900       7.933 -68.653 -50.892  1.00  0.00     0.170 HD
BRANCH  11  14
HETATM   14  C9  UNK   900       8.210 -66.254 -51.503  1.00  0.00     0.103 C 
BRANCH  14  15
HETATM   15  C10 UNK   900       6.785 -66.636 -51.903  1.00  0.00     0.009 C 
BRANCH  15  16
HETATM   16  C11 UNK   900       5.729 -65.880 -51.092  1.00  0.00     0.000 C 
BRANCH  16  17
HETATM   17  C12 UNK   900       4.787 -66.846 -50.372  1.00  0.00    -0.005 C 
HETATM   18  C13 UNK   900       4.874 -66.685 -48.862  1.00  0.00     0.005 C 
ENDBRANCH  16  17
ENDBRANCH  15  16
ENDBRANCH  14  15
ENDBRANCH  11  14
ENDBRANCH   7  10
TORSDOF 5
ENDMDL
MODEL 5
REMARK VINA RESULT:      -4.5     31.958     34.235
REMARK  5 active torsions:
REMARK  status: ('A' for Active; 'I' for Inactive)
REMARK    1  A    between atoms: N2_4  and  C5_9 
REMARK       I    between atoms: N2_4  and  C8_12 
REMARK    2  A    between atoms: C8_12  and  C9_13 
REMARK    3  A    between atoms: C9_13  and  C10_14 
REMARK    4  A    between atoms: C10_14  and  C11_15 
REMARK    5  A    between atoms: C11_15  and  C12_16 
ROOT
HETATM    1  O1  UNK   900       1.305 -44.139 -63.977  1.00  0.00    -0.291 OA
HETATM    2  N1  UNK   900       4.384 -44.673 -62.489  1.00  0.00    -0.355 N 
HETATM    3  C1  UNK   900       3.647 -43.801 -63.401  1.00  0.00     0.160 A 
HETATM    4  C2  UNK   900       4.400 -43.952 -64.708  1.00  0.00     0.035 C 
HETATM    5  C3  UNK   900       5.740 -44.922 -62.953  1.00  0.00     0.125 C 
HETATM    6  C4  UNK   900       5.847 -44.074 -64.225  1.00  0.00     0.022 C 
HETATM    7  C5  UNK   900       3.550 -45.591 -61.860  1.00  0.00     0.110 A 
HETATM    8  C6  UNK   900       2.280 -44.440 -63.307  1.00  0.00     0.175 A 
HETATM    9  C7  UNK   900       2.272 -45.500 -62.266  1.00  0.00     0.100 A 
ENDROOT
BRANCH   7  10
HETATM   10  N2  UNK   900       3.939 -46.535 -60.957  1.00  0.00    -0.313 N 
HETATM   11  C8  UNK   900       3.682 -46.448 -59.594  1.00  0.00     0.223 C 
HETATM   12  O2  UNK   900       3.086 -45.529 -59.038  1.00  0.00    -0.273 OA
HETATM   13  H9  UNK   900       4.226 -47.438 -61.325  1.00  0.00     0.170 HD
BRANCH  11  14
HETATM   14  C9  UNK   900       4.264 -47.635 -58.843  1.00  0.00     0.103 C 
BRANCH  14  15
HETATM   15  C10 UNK   900       3.631 -48.973 -59.221  1.00  0.00     0.009 C 
BRANCH  15  16
HETATM   16  C11 UNK   900       2.742 -49.534 -58.107  1.00  0.00     0.000 C 
BRANCH  16  17
HETATM   17  C12 UNK   900       1.272 -49.552 -58.528  1.00  0.00    -0.005 C 
HETATM   18  C13 UNK   900       1.118 -49.320 -60.023  1.00  0.00     0.005 C 
ENDBRANCH  16  17
ENDBRANCH  15  16
ENDBRANCH  14  15
ENDBRANCH  11  14
ENDBRANCH   7  10
TORSDOF 5
ENDMDL
MODEL 6
REMARK VINA RESULT:      -4.1      5.908     10.258
REMARK  5 active torsions:
REMARK  status: ('A' for Active; 'I' for Inactive)
REMARK    1  A    between atoms: N2_4  and  C5_9 
REMARK       I    between atoms: N2_4  and  C8_12 
REMARK    2  A    between atoms: C8_12  and  C9_13 
REMARK    3  A    between atoms: C9_13  and  C10_14 
REMARK    4  A    between atoms: C10_14  and  C11_15 
REMARK    5  A    between atoms: C11_15  and  C12_16 
ROOT
HETATM    1  O1  UNK   900      40.867 -43.116 -56.948  1.00  0.00    -0.291 OA
HETATM    2  N1  UNK   900      39.200 -42.321 -54.021  1.00  0.00    -0.355 N 
HETATM    3  C1  UNK   900      39.016 -42.686 -55.425  1.00  0.00     0.160 A 
HETATM    4  C2  UNK   900      38.300 -41.482 -56.004  1.00  0.00     0.035 C 
HETATM    5  C3  UNK   900      38.258 -41.295 -53.599  1.00  0.00     0.125 C 
HETATM    6  C4  UNK   900      37.393 -41.067 -54.844  1.00  0.00     0.022 C 
HETATM    7  C5  UNK   900      40.527 -42.429 -53.625  1.00  0.00     0.110 A 
HETATM    8  C6  UNK   900      40.461 -42.894 -55.818  1.00  0.00     0.175 A 
HETATM    9  C7  UNK   900      41.344 -42.797 -54.627  1.00  0.00     0.100 A 
ENDROOT
BRANCH   7  10
HETATM   10  N2  UNK   900      41.015 -42.160 -52.381  1.00  0.00    -0.313 N 
HETATM   11  C8  UNK   900      41.105 -43.107 -51.368  1.00  0.00     0.223 C 
HETATM   12  O2  UNK   900      40.765 -44.284 -51.459  1.00  0.00    -0.273 OA
HETATM   13  H9  UNK   900      41.536 -41.295 -52.265  1.00  0.00     0.170 HD
BRANCH  11  14
HETATM   14  C9  UNK   900      41.660 -42.500 -50.089  1.00  0.00     0.103 C 
BRANCH  14  15
HETATM   15  C10 UNK   900      42.766 -43.332 -49.441  1.00  0.00     0.009 C 
BRANCH  15  16
HETATM   16  C11 UNK   900      42.212 -44.496 -48.615  1.00  0.00     0.000 C 
BRANCH  16  17
HETATM   17  C12 UNK   900      43.053 -45.759 -48.805  1.00  0.00    -0.005 C 
HETATM   18  C13 UNK   900      42.198 -47.015 -48.726  1.00  0.00     0.005 C 
ENDBRANCH  16  17
ENDBRANCH  15  16
ENDBRANCH  14  15
ENDBRANCH  11  14
ENDBRANCH   7  10
TORSDOF 5
ENDMDL
MODEL 7
REMARK VINA RESULT:      -3.9      2.005      2.886
REMARK  5 active torsions:
REMARK  status: ('A' for Active; 'I' for Inactive)
REMARK    1  A    between atoms: N2_4  and  C5_9 
REMARK       I    between atoms: N2_4  and  C8_12 
REMARK    2  A    between atoms: C8_12  and  C9_13 
REMARK    3  A    between atoms: C9_13  and  C10_14 
REMARK    4  A    between atoms: C10_14  and  C11_15 
REMARK    5  A    between atoms: C11_15  and  C12_16 
ROOT
HETATM    1  O1  UNK   900      41.670 -37.920 -55.156  1.00  0.00    -0.291 OA
HETATM    2  N1  UNK   900      38.458 -39.081 -54.594  1.00  0.00    -0.355 N 
HETATM    3  C1  UNK   900      39.859 -39.245 -54.209  1.00  0.00     0.160 A 
HETATM    4  C2  UNK   900      40.163 -40.674 -54.611  1.00  0.00     0.035 C 
HETATM    5  C3  UNK   900      37.774 -40.360 -54.707  1.00  0.00     0.125 C 
HETATM    6  C4  UNK   900      38.843 -41.378 -54.294  1.00  0.00     0.022 C 
HETATM    7  C5  UNK   900      38.270 -37.974 -55.413  1.00  0.00     0.110 A 
HETATM    8  C6  UNK   900      40.475 -38.141 -55.038  1.00  0.00     0.175 A 
HETATM    9  C7  UNK   900      39.417 -37.336 -55.702  1.00  0.00     0.100 A 
ENDROOT
BRANCH   7  10
HETATM   10  N2  UNK   900      37.081 -37.560 -55.936  1.00  0.00    -0.313 N 
HETATM   11  C8  UNK   900      36.170 -36.770 -55.244  1.00  0.00     0.223 C 
HETATM   12  O2  UNK   900      36.313 -36.353 -54.098  1.00  0.00    -0.273 OA
HETATM   13  H9  UNK   900      36.963 -37.645 -56.942  1.00  0.00     0.170 HD
BRANCH  11  14
HETATM   14  C9  UNK   900      34.928 -36.498 -56.078  1.00  0.00     0.103 C 
BRANCH  14  15
HETATM   15  C10 UNK   900      35.226 -36.178 -57.542  1.00  0.00     0.009 C 
BRANCH  15  16
HETATM   16  C11 UNK   900      34.099 -36.622 -58.478  1.00  0.00     0.000 C 
BRANCH  16  17
HETATM   17  C12 UNK   900      32.791 -35.898 -58.152  1.00  0.00    -0.005 C 
HETATM   18  C13 UNK   900      31.627 -36.872 -58.049  1.00  0.00     0.005 C 
ENDBRANCH  16  17
ENDBRANCH  15  16
ENDBRANCH  14  15
ENDBRANCH  11  14
ENDBRANCH   7  10
TORSDOF 5
ENDMDL
MODEL 8
REMARK VINA RESULT:      -3.7     31.770     34.198
REMARK  5 active torsions:
REMARK  status: ('A' for Active; 'I' for Inactive)
REMARK    1  A    between atoms: N2_4  and  C5_9 
REMARK       I    between atoms: N2_4  and  C8_12 
REMARK    2  A    between atoms: C8_12  and  C9_13 
REMARK    3  A    between atoms: C9_13  and  C10_14 
REMARK    4  A    between atoms: C10_14  and  C11_15 
REMARK    5  A    between atoms: C11_15  and  C12_16 
ROOT
HETATM    1  O1  UNK   900      23.594 -71.617 -67.018  1.00  0.00    -0.291 OA
HETATM    2  N1  UNK   900      24.323 -70.409 -63.857  1.00  0.00    -0.355 N 
HETATM    3  C1  UNK   900      23.602 -71.449 -64.588  1.00  0.00     0.160 A 
HETATM    4  C2  UNK   900      22.156 -71.201 -64.205  1.00  0.00     0.035 C 
HETATM    5  C3  UNK   900      23.556 -69.909 -62.726  1.00  0.00     0.125 C 
HETATM    6  C4  UNK   900      22.287 -70.769 -62.744  1.00  0.00     0.022 C 
HETATM    7  C5  UNK   900      25.137 -69.655 -64.694  1.00  0.00     0.110 A 
HETATM    8  C6  UNK   900      24.020 -71.098 -65.998  1.00  0.00     0.175 A 
HETATM    9  C7  UNK   900      25.042 -70.020 -65.984  1.00  0.00     0.100 A 
ENDROOT
BRANCH   7  10
HETATM   10  N2  UNK   900      25.932 -68.615 -64.312  1.00  0.00    -0.313 N 
HETATM   11  C8  UNK   900      27.302 -68.729 -64.108  1.00  0.00     0.223 C 
HETATM   12  O2  UNK   900      27.961 -69.756 -64.242  1.00  0.00    -0.273 OA
HETATM   13  H9  UNK   900      25.544 -67.680 -64.398  1.00  0.00     0.170 HD
BRANCH  11  14
HETATM   14  C9  UNK   900      27.907 -67.408 -63.658  1.00  0.00     0.103 C 
BRANCH  14  15
HETATM   15  C10 UNK   900      28.078 -66.393 -64.788  1.00  0.00     0.009 C 
BRANCH  15  16
HETATM   16  C11 UNK   900      29.097 -66.852 -65.835  1.00  0.00     0.000 C 
BRANCH  16  17
HETATM   17  C12 UNK   900      28.862 -66.159 -67.178  1.00  0.00    -0.005 C 
HETATM   18  C13 UNK   900      30.149 -65.561 -67.727  1.00  0.00     0.005 C 
ENDBRANCH  16  17
ENDBRANCH  15  16
ENDBRANCH  14  15
ENDBRANCH  11  14
ENDBRANCH   7  10
TORSDOF 5
ENDMDL
MODEL 9
REMARK VINA RESULT:      -3.6     48.591     50.833
REMARK  5 active torsions:
REMARK  status: ('A' for Active; 'I' for Inactive)
REMARK    1  A    between atoms: N2_4  and  C5_9 
REMARK       I    between atoms: N2_4  and  C8_12 
REMARK    2  A    between atoms: C8_12  and  C9_13 
REMARK    3  A    between atoms: C9_13  and  C10_14 
REMARK    4  A    between atoms: C10_14  and  C11_15 
REMARK    5  A    between atoms: C11_15  and  C12_16 
ROOT
HETATM    1  O1  UNK   900       8.970 -83.615 -66.389  1.00  0.00    -0.291 OA
HETATM    2  N1  UNK   900       7.258 -81.563 -64.191  1.00  0.00    -0.355 N 
HETATM    3  C1  UNK   900       7.209 -82.843 -64.895  1.00  0.00     0.160 A 
HETATM    4  C2  UNK   900       5.979 -82.710 -65.770  1.00  0.00     0.035 C 
HETATM    5  C3  UNK   900       5.959 -80.907 -64.169  1.00  0.00     0.125 C 
HETATM    6  C4  UNK   900       5.036 -81.910 -64.869  1.00  0.00     0.022 C 
HETATM    7  C5  UNK   900       8.490 -80.938 -64.332  1.00  0.00     0.110 A 
HETATM    8  C6  UNK   900       8.558 -82.803 -65.577  1.00  0.00     0.175 A 
HETATM    9  C7  UNK   900       9.338 -81.625 -65.117  1.00  0.00     0.100 A 
ENDROOT
BRANCH   7  10
HETATM   10  N2  UNK   900       8.843 -79.736 -63.795  1.00  0.00    -0.313 N 
HETATM   11  C8  UNK   900       8.521 -78.512 -64.370  1.00  0.00     0.223 C 
HETATM   12  O2  UNK   900       7.891 -78.357 -65.412  1.00  0.00    -0.273 OA
HETATM   13  H9  UNK   900       9.157 -79.734 -62.828  1.00  0.00     0.170 HD
BRANCH  11  14
HETATM   14  C9  UNK   900       9.077 -77.354 -63.555  1.00  0.00     0.103 C 
BRANCH  14  15
HETATM   15  C10 UNK   900      10.512 -77.571 -63.075  1.00  0.00     0.009 C 
BRANCH  15  16
HETATM   16  C11 UNK   900      10.880 -76.654 -61.906  1.00  0.00     0.000 C 
BRANCH  16  17
HETATM   17  C12 UNK   900      12.311 -76.912 -61.430  1.00  0.00    -0.005 C 
HETATM   18  C13 UNK   900      13.318 -76.093 -62.223  1.00  0.00     0.005 C 
ENDBRANCH  16  17
ENDBRANCH  15  16
ENDBRANCH  14  15
ENDBRANCH  11  14
ENDBRANCH   7  10
TORSDOF 5
ENDMDL
