MODEL 1
REMARK VINA RESULT:      -6.2      0.000      0.000
REMARK  1 active torsions:
REMARK  status: ('A' for Active; 'I' for Inactive)
REMARK    1  A    between atoms: O1_1  and  C7_10 
ROOT
HETATM    1  O2  UNK   900      26.632 -44.170 -93.789  1.00  0.00    -0.313 OA
HETATM    2  O3  UNK   900      27.203 -43.071 -91.862  1.00  0.00    -0.259 OA
HETATM    3  C1  UNK   900      25.481 -39.209 -95.158  1.00  0.00     0.022 C 
HETATM    4  C2  UNK   900      25.802 -37.053 -94.051  1.00  0.00    -0.043 C 
HETATM    5  C3  UNK   900      24.949 -37.764 -95.114  1.00  0.00     0.018 C 
HETATM    6  C4  UNK   900      24.466 -40.229 -95.727  1.00  0.00     0.023 C 
HETATM    7  C5  UNK   900      25.905 -38.124 -92.957  1.00  0.00     0.043 C 
HETATM    8  C6  UNK   900      25.873 -39.435 -93.712  1.00  0.00    -0.074 C 
HETATM    9  C7  UNK   900      25.083 -41.624 -96.007  1.00  0.00     0.154 C 
HETATM   10  C8  UNK   900      25.107 -35.789 -93.535  1.00  0.00     0.015 C 
HETATM   11  C9  UNK   900      27.189 -36.672 -94.597  1.00  0.00     0.015 C 
HETATM   12  C10 UNK   900      26.139 -40.597 -93.099  1.00  0.00     0.021 C 
HETATM   13  C11 UNK   900      25.749 -42.344 -94.877  1.00  0.00    -0.011 A 
HETATM   14  C12 UNK   900      23.813 -39.707 -97.020  1.00  0.00     0.014 C 
HETATM   15  C13 UNK   900      26.166 -41.902 -93.690  1.00  0.00     0.046 A 
HETATM   16  C14 UNK   900      26.024 -43.796 -95.022  1.00  0.00     0.217 A 
HETATM   17  C15 UNK   900      26.726 -43.074 -92.984  1.00  0.00     0.294 A 
ENDROOT
BRANCH   9  18
HETATM   18  O1  UNK   900      26.004 -41.550 -97.100  1.00  0.00    -0.391 OA
HETATM   19  H20 UNK   900      25.582 -41.947 -97.880  1.00  0.00     0.210 HD
ENDBRANCH   9  18
TORSDOF 1
ENDMDL
MODEL 2
REMARK VINA RESULT:      -5.9     25.148     28.217
REMARK  1 active torsions:
REMARK  status: ('A' for Active; 'I' for Inactive)
REMARK    1  A    between atoms: O1_1  and  C7_10 
ROOT
HETATM    1  O2  UNK   900      25.522 -19.970 -70.205  1.00  0.00    -0.313 OA
HETATM    2  O3  UNK   900      23.848 -21.463 -69.742  1.00  0.00    -0.259 OA
HETATM    3  C1  UNK   900      25.028 -22.317 -74.901  1.00  0.00     0.022 C 
HETATM    4  C2  UNK   900      23.461 -23.974 -75.785  1.00  0.00    -0.043 C 
HETATM    5  C3  UNK   900      24.872 -23.397 -75.990  1.00  0.00     0.018 C 
HETATM    6  C4  UNK   900      26.500 -21.989 -74.559  1.00  0.00     0.023 C 
HETATM    7  C5  UNK   900      23.372 -24.062 -74.256  1.00  0.00     0.043 C 
HETATM    8  C6  UNK   900      24.223 -22.911 -73.764  1.00  0.00    -0.074 C 
HETATM    9  C7  UNK   900      26.660 -20.736 -73.658  1.00  0.00     0.154 C 
HETATM   10  C8  UNK   900      23.325 -25.353 -76.436  1.00  0.00     0.015 C 
HETATM   11  C9  UNK   900      22.379 -23.043 -76.358  1.00  0.00     0.015 C 
HETATM   12  C10 UNK   900      24.226 -22.552 -72.472  1.00  0.00     0.021 C 
HETATM   13  C11 UNK   900      25.951 -20.715 -72.340  1.00  0.00    -0.011 A 
HETATM   14  C12 UNK   900      27.343 -21.795 -75.832  1.00  0.00     0.014 C 
HETATM   15  C13 UNK   900      24.960 -21.476 -71.874  1.00  0.00     0.046 A 
HETATM   16  C14 UNK   900      26.363 -19.711 -71.327  1.00  0.00     0.217 A 
HETATM   17  C15 UNK   900      24.687 -21.006 -70.500  1.00  0.00     0.294 A 
ENDROOT
BRANCH   9  18
HETATM   18  O1  UNK   900      26.302 -19.555 -74.382  1.00  0.00    -0.391 OA
HETATM   19  H20 UNK   900      25.533 -19.762 -74.940  1.00  0.00     0.210 HD
ENDBRANCH   9  18
TORSDOF 1
ENDMDL
MODEL 3
REMARK VINA RESULT:      -5.5     58.228     59.792
REMARK  1 active torsions:
REMARK  status: ('A' for Active; 'I' for Inactive)
REMARK    1  A    between atoms: O1_1  and  C7_10 
ROOT
HETATM    1  O2  UNK   900      22.314 -60.588 -37.033  1.00  0.00    -0.313 OA
HETATM    2  O3  UNK   900      22.304 -58.299 -37.118  1.00  0.00    -0.259 OA
HETATM    3  C1  UNK   900      27.383 -59.663 -38.157  1.00  0.00     0.022 C 
HETATM    4  C2  UNK   900      28.708 -57.616 -38.339  1.00  0.00    -0.043 C 
HETATM    5  C3  UNK   900      28.659 -59.083 -38.797  1.00  0.00     0.018 C 
HETATM    6  C4  UNK   900      26.837 -60.915 -38.884  1.00  0.00     0.023 C 
HETATM    7  C5  UNK   900      27.237 -57.196 -38.458  1.00  0.00     0.043 C 
HETATM    8  C6  UNK   900      26.460 -58.462 -38.170  1.00  0.00    -0.074 C 
HETATM    9  C7  UNK   900      25.713 -61.643 -38.101  1.00  0.00     0.154 C 
HETATM   10  C8  UNK   900      29.608 -56.778 -39.252  1.00  0.00     0.015 C 
HETATM   11  C9  UNK   900      29.212 -57.491 -36.891  1.00  0.00     0.015 C 
HETATM   12  C10 UNK   900      25.132 -58.437 -37.992  1.00  0.00     0.021 C 
HETATM   13  C11 UNK   900      24.493 -60.862 -37.722  1.00  0.00    -0.011 A 
HETATM   14  C12 UNK   900      27.960 -61.922 -39.190  1.00  0.00     0.014 C 
HETATM   15  C13 UNK   900      24.277 -59.547 -37.693  1.00  0.00     0.046 A 
HETATM   16  C14 UNK   900      23.278 -61.604 -37.299  1.00  0.00     0.217 A 
HETATM   17  C15 UNK   900      22.876 -59.366 -37.258  1.00  0.00     0.294 A 
ENDROOT
BRANCH   9  18
HETATM   18  O1  UNK   900      26.245 -62.251 -36.920  1.00  0.00    -0.391 OA
HETATM   19  H20 UNK   900      25.852 -61.809 -36.148  1.00  0.00     0.210 HD
ENDBRANCH   9  18
TORSDOF 1
ENDMDL
MODEL 4
REMARK VINA RESULT:      -5.5     23.208     25.576
REMARK  1 active torsions:
REMARK  status: ('A' for Active; 'I' for Inactive)
REMARK    1  A    between atoms: O1_1  and  C7_10 
ROOT
HETATM    1  O2  UNK   900      10.124 -29.520 -75.429  1.00  0.00    -0.313 OA
HETATM    2  O3  UNK   900      12.216 -28.660 -75.792  1.00  0.00    -0.259 OA
HETATM    3  C1  UNK   900       9.495 -27.522 -80.269  1.00  0.00     0.022 C 
HETATM    4  C2  UNK   900      11.033 -26.487 -81.863  1.00  0.00    -0.043 C 
HETATM    5  C3  UNK   900       9.547 -26.568 -81.478  1.00  0.00     0.018 C 
HETATM    6  C4  UNK   900       8.236 -27.342 -79.388  1.00  0.00     0.023 C 
HETATM    7  C5  UNK   900      11.715 -26.417 -80.490  1.00  0.00     0.043 C 
HETATM    8  C6  UNK   900      10.808 -27.215 -79.579  1.00  0.00    -0.074 C 
HETATM    9  C7  UNK   900       8.057 -28.460 -78.329  1.00  0.00     0.154 C 
HETATM   10  C8  UNK   900      11.324 -25.238 -82.700  1.00  0.00     0.015 C 
HETATM   11  C9  UNK   900      11.483 -27.731 -82.650  1.00  0.00     0.015 C 
HETATM   12  C10 UNK   900      11.184 -27.539 -78.334  1.00  0.00     0.021 C 
HETATM   13  C11 UNK   900       9.169 -28.700 -77.356  1.00  0.00    -0.011 A 
HETATM   14  C12 UNK   900       6.959 -27.260 -80.244  1.00  0.00     0.014 C 
HETATM   15  C13 UNK   900      10.442 -28.304 -77.376  1.00  0.00     0.046 A 
HETATM   16  C14 UNK   900       8.886 -29.499 -76.137  1.00  0.00     0.217 A 
HETATM   17  C15 UNK   900      11.057 -28.823 -76.136  1.00  0.00     0.294 A 
ENDROOT
BRANCH   9  18
HETATM   18  O1  UNK   900       7.740 -29.702 -78.966  1.00  0.00    -0.391 OA
HETATM   19  H20 UNK   900       7.902 -29.604 -79.920  1.00  0.00     0.210 HD
ENDBRANCH   9  18
TORSDOF 1
ENDMDL
MODEL 5
REMARK VINA RESULT:      -5.4     26.373     27.850
REMARK  1 active torsions:
REMARK  status: ('A' for Active; 'I' for Inactive)
REMARK    1  A    between atoms: O1_1  and  C7_10 
ROOT
HETATM    1  O2  UNK   900      12.261 -28.580 -75.511  1.00  0.00    -0.313 OA
HETATM    2  O3  UNK   900      10.391 -28.993 -76.768  1.00  0.00    -0.259 OA
HETATM    3  C1  UNK   900      10.202 -32.631 -72.835  1.00  0.00     0.022 C 
HETATM    4  C2  UNK   900       8.295 -34.106 -73.241  1.00  0.00    -0.043 C 
HETATM    5  C3  UNK   900       9.196 -33.557 -72.124  1.00  0.00     0.018 C 
HETATM    6  C4  UNK   900      10.838 -31.572 -71.904  1.00  0.00     0.023 C 
HETATM    7  C5  UNK   900       8.080 -32.864 -74.117  1.00  0.00     0.043 C 
HETATM    8  C6  UNK   900       9.359 -32.070 -73.961  1.00  0.00    -0.074 C 
HETATM    9  C7  UNK   900      12.026 -30.814 -72.551  1.00  0.00     0.154 C 
HETATM   10  C8  UNK   900       6.971 -34.633 -72.680  1.00  0.00     0.015 C 
HETATM   11  C9  UNK   900       8.988 -35.234 -74.026  1.00  0.00     0.015 C 
HETATM   12  C10 UNK   900       9.616 -31.008 -74.738  1.00  0.00     0.021 C 
HETATM   13  C11 UNK   900      11.788 -30.091 -73.840  1.00  0.00    -0.011 A 
HETATM   14  C12 UNK   900      11.312 -32.200 -70.581  1.00  0.00     0.014 C 
HETATM   15  C13 UNK   900      10.787 -30.183 -74.717  1.00  0.00     0.046 A 
HETATM   16  C14 UNK   900      12.786 -29.086 -74.286  1.00  0.00     0.217 A 
HETATM   17  C15 UNK   900      11.083 -29.208 -75.787  1.00  0.00     0.294 A 
ENDROOT
BRANCH   9  18
HETATM   18  O1  UNK   900      13.141 -31.694 -72.727  1.00  0.00    -0.391 OA
HETATM   19  H20 UNK   900      13.104 -32.373 -72.032  1.00  0.00     0.210 HD
ENDBRANCH   9  18
TORSDOF 1
ENDMDL
MODEL 6
REMARK VINA RESULT:      -5.4     45.283     46.784
REMARK  1 active torsions:
REMARK  status: ('A' for Active; 'I' for Inactive)
REMARK    1  A    between atoms: O1_1  and  C7_10 
ROOT
HETATM    1  O2  UNK   900       2.484 -68.201 -62.299  1.00  0.00    -0.313 OA
HETATM    2  O3  UNK   900       0.661 -67.358 -63.401  1.00  0.00    -0.259 OA
HETATM    3  C1  UNK   900       3.018 -63.068 -61.214  1.00  0.00     0.022 C 
HETATM    4  C2  UNK   900       1.620 -61.111 -61.658  1.00  0.00    -0.043 C 
HETATM    5  C3  UNK   900       3.069 -61.536 -61.369  1.00  0.00     0.018 C 
HETATM    6  C4  UNK   900       4.378 -63.763 -61.457  1.00  0.00     0.023 C 
HETATM    7  C5  UNK   900       1.153 -62.209 -62.623  1.00  0.00     0.043 C 
HETATM    8  C6  UNK   900       1.925 -63.438 -62.194  1.00  0.00    -0.074 C 
HETATM    9  C7  UNK   900       4.387 -65.261 -61.056  1.00  0.00     0.154 C 
HETATM   10  C8  UNK   900       1.566 -59.728 -62.313  1.00  0.00     0.015 C 
HETATM   11  C9  UNK   900       0.769 -61.091 -60.377  1.00  0.00     0.015 C 
HETATM   12  C10 UNK   900       1.632 -64.650 -62.688  1.00  0.00     0.021 C 
HETATM   13  C11 UNK   900       3.378 -66.170 -61.686  1.00  0.00    -0.011 A 
HETATM   14  C12 UNK   900       5.517 -63.044 -60.713  1.00  0.00     0.014 C 
HETATM   15  C13 UNK   900       2.259 -65.895 -62.358  1.00  0.00     0.046 A 
HETATM   16  C14 UNK   900       3.588 -67.637 -61.595  1.00  0.00     0.217 A 
HETATM   17  C15 UNK   900       1.686 -67.196 -62.760  1.00  0.00     0.294 A 
ENDROOT
BRANCH   9  18
HETATM   18  O1  UNK   900       4.288 -65.395 -59.634  1.00  0.00    -0.391 OA
HETATM   19  H20 UNK   900       3.690 -66.136 -59.440  1.00  0.00     0.210 HD
ENDBRANCH   9  18
TORSDOF 1
ENDMDL
MODEL 7
REMARK VINA RESULT:      -5.4     27.477     28.301
REMARK  1 active torsions:
REMARK  status: ('A' for Active; 'I' for Inactive)
REMARK    1  A    between atoms: O1_1  and  C7_10 
ROOT
HETATM    1  O2  UNK   900       1.382 -43.331 -82.139  1.00  0.00    -0.313 OA
HETATM    2  O3  UNK   900       3.074 -43.780 -80.662  1.00  0.00    -0.259 OA
HETATM    3  C1  UNK   900       1.511 -48.595 -82.427  1.00  0.00     0.022 C 
HETATM    4  C2  UNK   900       2.760 -50.306 -81.204  1.00  0.00    -0.043 C 
HETATM    5  C3  UNK   900       2.026 -50.044 -82.529  1.00  0.00     0.018 C 
HETATM    6  C4  UNK   900       1.230 -47.937 -83.798  1.00  0.00     0.023 C 
HETATM    7  C5  UNK   900       3.506 -48.982 -80.987  1.00  0.00     0.043 C 
HETATM    8  C6  UNK   900       2.608 -47.938 -81.614  1.00  0.00    -0.074 C 
HETATM    9  C7  UNK   900       0.479 -46.584 -83.691  1.00  0.00     0.154 C 
HETATM   10  C8  UNK   900       3.731 -51.484 -81.329  1.00  0.00     0.015 C 
HETATM   11  C9  UNK   900       1.776 -50.590 -80.057  1.00  0.00     0.015 C 
HETATM   12  C10 UNK   900       2.841 -46.629 -81.445  1.00  0.00     0.021 C 
HETATM   13  C11 UNK   900       1.092 -45.495 -82.867  1.00  0.00    -0.011 A 
HETATM   14  C12 UNK   900       0.431 -48.876 -84.718  1.00  0.00     0.014 C 
HETATM   15  C13 UNK   900       2.066 -45.538 -81.957  1.00  0.00     0.046 A 
HETATM   16  C14 UNK   900       0.590 -44.108 -83.034  1.00  0.00     0.217 A 
HETATM   17  C15 UNK   900       2.261 -44.148 -81.493  1.00  0.00     0.294 A 
ENDROOT
BRANCH   9  18
HETATM   18  O1  UNK   900      -0.861 -46.794 -83.235  1.00  0.00    -0.391 OA
HETATM   19  H20 UNK   900      -1.431 -46.124 -83.648  1.00  0.00     0.210 HD
ENDBRANCH   9  18
TORSDOF 1
ENDMDL
MODEL 8
REMARK VINA RESULT:      -5.3     34.842     37.338
REMARK  1 active torsions:
REMARK  status: ('A' for Active; 'I' for Inactive)
REMARK    1  A    between atoms: O1_1  and  C7_10 
ROOT
HETATM    1  O2  UNK   900      26.126 -67.364 -64.653  1.00  0.00    -0.313 OA
HETATM    2  O3  UNK   900      28.274 -67.350 -63.857  1.00  0.00    -0.259 OA
HETATM    3  C1  UNK   900      28.696 -65.609 -68.910  1.00  0.00     0.022 C 
HETATM    4  C2  UNK   900      31.068 -65.315 -69.428  1.00  0.00    -0.043 C 
HETATM    5  C3  UNK   900      29.664 -64.823 -69.816  1.00  0.00     0.018 C 
HETATM    6  C4  UNK   900      27.321 -64.923 -68.727  1.00  0.00     0.023 C 
HETATM    7  C5  UNK   900      30.963 -65.403 -67.899  1.00  0.00     0.043 C 
HETATM    8  C6  UNK   900      29.513 -65.753 -67.643  1.00  0.00    -0.074 C 
HETATM    9  C7  UNK   900      26.269 -65.825 -68.032  1.00  0.00     0.154 C 
HETATM   10  C8  UNK   900      32.146 -64.317 -69.860  1.00  0.00     0.015 C 
HETATM   11  C9  UNK   900      31.381 -66.687 -70.049  1.00  0.00     0.015 C 
HETATM   12  C10 UNK   900      29.089 -66.106 -66.420  1.00  0.00     0.021 C 
HETATM   13  C11 UNK   900      26.595 -66.386 -66.682  1.00  0.00    -0.011 A 
HETATM   14  C12 UNK   900      26.750 -64.442 -70.073  1.00  0.00     0.014 C 
HETATM   15  C13 UNK   900      27.760 -66.482 -66.040  1.00  0.00     0.046 A 
HETATM   16  C14 UNK   900      25.493 -66.943 -65.858  1.00  0.00     0.217 A 
HETATM   17  C15 UNK   900      27.462 -67.103 -64.732  1.00  0.00     0.294 A 
ENDROOT
BRANCH   9  18
HETATM   18  O1  UNK   900      25.897 -66.908 -68.891  1.00  0.00    -0.391 OA
HETATM   19  H20 UNK   900      26.603 -67.574 -68.863  1.00  0.00     0.210 HD
ENDBRANCH   9  18
TORSDOF 1
ENDMDL
MODEL 9
REMARK VINA RESULT:      -5.3     37.937     39.180
REMARK  1 active torsions:
REMARK  status: ('A' for Active; 'I' for Inactive)
REMARK    1  A    between atoms: O1_1  and  C7_10 
ROOT
HETATM    1  O2  UNK   900       4.497 -39.850 -64.362  1.00  0.00    -0.313 OA
HETATM    2  O3  UNK   900       2.886 -39.459 -62.782  1.00  0.00    -0.259 OA
HETATM    3  C1  UNK   900       4.168 -44.625 -62.150  1.00  0.00     0.022 C 
HETATM    4  C2  UNK   900       2.688 -45.584 -60.456  1.00  0.00    -0.043 C 
HETATM    5  C3  UNK   900       4.074 -45.750 -61.102  1.00  0.00     0.018 C 
HETATM    6  C4  UNK   900       5.620 -44.252 -62.533  1.00  0.00     0.023 C 
HETATM    7  C5  UNK   900       2.584 -44.060 -60.314  1.00  0.00     0.043 C 
HETATM    8  C6  UNK   900       3.376 -43.519 -61.485  1.00  0.00    -0.074 C 
HETATM    9  C7  UNK   900       5.712 -43.309 -63.761  1.00  0.00     0.154 C 
HETATM   10  C8  UNK   900       2.622 -46.281 -59.094  1.00  0.00     0.015 C 
HETATM   11  C9  UNK   900       1.572 -46.142 -61.356  1.00  0.00     0.015 C 
HETATM   12  C10 UNK   900       3.346 -42.217 -61.801  1.00  0.00     0.021 C 
HETATM   13  C11 UNK   900       4.986 -42.001 -63.707  1.00  0.00    -0.011 A 
HETATM   14  C12 UNK   900       6.469 -45.506 -62.805  1.00  0.00     0.014 C 
HETATM   15  C13 UNK   900       4.024 -41.574 -62.888  1.00  0.00     0.046 A 
HETATM   16  C14 UNK   900       5.340 -40.951 -64.695  1.00  0.00     0.217 A 
HETATM   17  C15 UNK   900       3.713 -40.190 -63.301  1.00  0.00     0.294 A 
ENDROOT
BRANCH   9  18
HETATM   18  O1  UNK   900       5.310 -44.000 -64.948  1.00  0.00    -0.391 OA
HETATM   19  H20 UNK   900       5.062 -43.337 -65.615  1.00  0.00     0.210 HD
ENDBRANCH   9  18
TORSDOF 1
ENDMDL
