MODEL 1
REMARK VINA RESULT:      -6.9      0.000      0.000
REMARK  4 active torsions:
REMARK  status: ('A' for Active; 'I' for Inactive)
REMARK    1  A    between atoms: O2_2  and  C7_11 
REMARK    2  A    between atoms: O4_4  and  C12_16 
REMARK    3  A    between atoms: C1_5  and  C6_10 
REMARK    4  A    between atoms: C10_14  and  C12_16 
ROOT
HETATM    1  O1  UNK   900      23.211 -39.905 -68.251  1.00  0.00    -0.307 OA
HETATM    2  O3  UNK   900      23.020 -41.018 -70.205  1.00  0.00    -0.259 OA
HETATM    3  C1  UNK   900      23.580 -38.656 -66.196  1.00  0.00     0.020 C 
HETATM    4  C2  UNK   900      22.635 -39.612 -66.957  1.00  0.00     0.171 C 
HETATM    5  C3  UNK   900      22.906 -38.224 -64.888  1.00  0.00     0.014 C 
HETATM    6  C4  UNK   900      21.224 -39.098 -67.062  1.00  0.00     0.001 C 
HETATM    7  C5  UNK   900      21.555 -37.543 -65.121  1.00  0.00     0.065 C 
HETATM    8  C7  UNK   900      20.736 -38.169 -66.219  1.00  0.00     0.052 C 
HETATM    9  C8  UNK   900      20.449 -39.721 -68.109  1.00  0.00     0.027 C 
HETATM   10  C10 UNK   900      21.008 -40.418 -69.108  1.00  0.00     0.041 C 
HETATM   11  C11 UNK   900      22.484 -40.493 -69.235  1.00  0.00     0.292 C 
ENDROOT
BRANCH  10  12
HETATM   12  C12 UNK   900      20.197 -41.079 -70.181  1.00  0.00     0.209 C 
BRANCH  12  13
HETATM   13  O4  UNK   900      20.461 -42.470 -70.192  1.00  0.00    -0.396 OA
HETATM   14  H16 UNK   900      20.620 -42.740 -69.271  1.00  0.00     0.209 HD
ENDBRANCH  12  13
ENDBRANCH  10  12
BRANCH   8  15
HETATM   15  O2  UNK   900      19.435 -37.711 -66.322  1.00  0.00    -0.364 OA
HETATM   16  H13 UNK   900      18.897 -38.424 -66.707  1.00  0.00     0.217 HD
ENDBRANCH   8  15
BRANCH   3  17
HETATM   17  C6  UNK   900      24.020 -37.448 -67.032  1.00  0.00     0.003 C 
HETATM   18  C9  UNK   900      25.501 -37.508 -67.343  1.00  0.00     0.005 C 
ENDBRANCH   3  17
TORSDOF 4
ENDMDL
MODEL 2
REMARK VINA RESULT:      -6.5      3.029      4.840
REMARK  4 active torsions:
REMARK  status: ('A' for Active; 'I' for Inactive)
REMARK    1  A    between atoms: O2_2  and  C7_11 
REMARK    2  A    between atoms: O4_4  and  C12_16 
REMARK    3  A    between atoms: C1_5  and  C6_10 
REMARK    4  A    between atoms: C10_14  and  C12_16 
ROOT
HETATM    1  O1  UNK   900      23.602 -37.485 -66.975  1.00  0.00    -0.307 OA
HETATM    2  O3  UNK   900      21.613 -38.545 -66.852  1.00  0.00    -0.259 OA
HETATM    3  C1  UNK   900      25.823 -36.499 -67.076  1.00  0.00     0.020 C 
HETATM    4  C2  UNK   900      24.302 -36.225 -67.085  1.00  0.00     0.171 C 
HETATM    5  C3  UNK   900      26.569 -35.186 -67.341  1.00  0.00     0.014 C 
HETATM    6  C4  UNK   900      23.849 -35.419 -68.272  1.00  0.00     0.001 C 
HETATM    7  C5  UNK   900      26.165 -34.541 -68.670  1.00  0.00     0.065 C 
HETATM    8  C7  UNK   900      24.694 -34.648 -68.981  1.00  0.00     0.052 C 
HETATM    9  C8  UNK   900      22.434 -35.521 -68.544  1.00  0.00     0.027 C 
HETATM   10  C10 UNK   900      21.665 -36.492 -68.032  1.00  0.00     0.041 C 
HETATM   11  C11 UNK   900      22.271 -37.582 -67.227  1.00  0.00     0.292 C 
ENDROOT
BRANCH  10  12
HETATM   12  C12 UNK   900      20.194 -36.582 -68.302  1.00  0.00     0.209 C 
BRANCH  12  13
HETATM   13  O4  UNK   900      19.642 -35.281 -68.379  1.00  0.00    -0.396 OA
HETATM   14  H16 UNK   900      18.781 -35.307 -67.928  1.00  0.00     0.209 HD
ENDBRANCH  12  13
ENDBRANCH  10  12
BRANCH   8  15
HETATM   15  O2  UNK   900      24.262 -33.906 -70.065  1.00  0.00    -0.364 OA
HETATM   16  H13 UNK   900      24.050 -33.011 -69.749  1.00  0.00     0.217 HD
ENDBRANCH   8  15
BRANCH   3  17
HETATM   17  C6  UNK   900      26.245 -37.599 -68.058  1.00  0.00     0.003 C 
HETATM   18  C9  UNK   900      27.729 -37.883 -67.954  1.00  0.00     0.005 C 
ENDBRANCH   3  17
TORSDOF 4
ENDMDL
MODEL 3
REMARK VINA RESULT:      -6.2      2.739      5.055
REMARK  4 active torsions:
REMARK  status: ('A' for Active; 'I' for Inactive)
REMARK    1  A    between atoms: O2_2  and  C7_11 
REMARK    2  A    between atoms: O4_4  and  C12_16 
REMARK    3  A    between atoms: C1_5  and  C6_10 
REMARK    4  A    between atoms: C10_14  and  C12_16 
ROOT
HETATM    1  O1  UNK   900      24.002 -38.341 -67.209  1.00  0.00    -0.307 OA
HETATM    2  O3  UNK   900      23.948 -37.079 -65.338  1.00  0.00    -0.259 OA
HETATM    3  C1  UNK   900      24.116 -39.835 -69.124  1.00  0.00     0.020 C 
HETATM    4  C2  UNK   900      23.882 -38.384 -68.649  1.00  0.00     0.171 C 
HETATM    5  C3  UNK   900      23.844 -39.918 -70.631  1.00  0.00     0.014 C 
HETATM    6  C4  UNK   900      22.583 -37.799 -69.133  1.00  0.00     0.001 C 
HETATM    7  C5  UNK   900      22.424 -39.473 -70.996  1.00  0.00     0.065 C 
HETATM    8  C7  UNK   900      21.932 -38.289 -70.205  1.00  0.00     0.052 C 
HETATM    9  C8  UNK   900      22.135 -36.656 -68.374  1.00  0.00     0.027 C 
HETATM   10  C10 UNK   900      22.619 -36.356 -67.161  1.00  0.00     0.041 C 
HETATM   11  C11 UNK   900      23.584 -37.264 -66.494  1.00  0.00     0.292 C 
ENDROOT
BRANCH  10  12
HETATM   12  C12 UNK   900      22.165 -35.157 -66.386  1.00  0.00     0.209 C 
BRANCH  12  13
HETATM   13  O4  UNK   900      21.378 -34.321 -67.214  1.00  0.00    -0.396 OA
HETATM   14  H16 UNK   900      21.623 -33.402 -67.012  1.00  0.00     0.209 HD
ENDBRANCH  12  13
ENDBRANCH  10  12
BRANCH   8  15
HETATM   15  O2  UNK   900      20.742 -37.737 -70.644  1.00  0.00    -0.364 OA
HETATM   16  H13 UNK   900      20.952 -37.088 -71.337  1.00  0.00     0.217 HD
ENDBRANCH   8  15
BRANCH   3  17
HETATM   17  C6  UNK   900      23.292 -40.868 -68.343  1.00  0.00     0.003 C 
HETATM   18  C9  UNK   900      23.385 -42.237 -68.982  1.00  0.00     0.005 C 
ENDBRANCH   3  17
TORSDOF 4
ENDMDL
MODEL 4
REMARK VINA RESULT:      -6.0     12.674     13.911
REMARK  4 active torsions:
REMARK  status: ('A' for Active; 'I' for Inactive)
REMARK    1  A    between atoms: O2_2  and  C7_11 
REMARK    2  A    between atoms: O4_4  and  C12_16 
REMARK    3  A    between atoms: C1_5  and  C6_10 
REMARK    4  A    between atoms: C10_14  and  C12_16 
ROOT
HETATM    1  O1  UNK   900      30.104 -48.407 -62.915  1.00  0.00    -0.307 OA
HETATM    2  O3  UNK   900      29.914 -47.757 -65.069  1.00  0.00    -0.259 OA
HETATM    3  C1  UNK   900      30.299 -49.276 -60.652  1.00  0.00     0.020 C 
HETATM    4  C2  UNK   900      30.149 -48.011 -61.526  1.00  0.00     0.171 C 
HETATM    5  C3  UNK   900      30.496 -48.854 -59.191  1.00  0.00     0.014 C 
HETATM    6  C4  UNK   900      31.205 -46.973 -61.260  1.00  0.00     0.001 C 
HETATM    7  C5  UNK   900      31.714 -47.944 -59.003  1.00  0.00     0.065 C 
HETATM    8  C7  UNK   900      31.904 -46.940 -60.109  1.00  0.00     0.052 C 
HETATM    9  C8  UNK   900      31.362 -46.009 -62.323  1.00  0.00     0.027 C 
HETATM   10  C10 UNK   900      30.884 -46.209 -63.559  1.00  0.00     0.041 C 
HETATM   11  C11 UNK   900      30.248 -47.501 -63.917  1.00  0.00     0.292 C 
ENDROOT
BRANCH  10  12
HETATM   12  C12 UNK   900      31.032 -45.197 -64.654  1.00  0.00     0.209 C 
BRANCH  12  13
HETATM   13  O4  UNK   900      29.767 -44.924 -65.228  1.00  0.00    -0.396 OA
HETATM   14  H16 UNK   900      29.125 -45.519 -64.805  1.00  0.00     0.209 HD
ENDBRANCH  12  13
ENDBRANCH  10  12
BRANCH   8  15
HETATM   15  O2  UNK   900      32.867 -45.975 -59.875  1.00  0.00    -0.364 OA
HETATM   16  H13 UNK   900      33.731 -46.352 -60.114  1.00  0.00     0.217 HD
ENDBRANCH   8  15
BRANCH   3  17
HETATM   17  C6  UNK   900      31.419 -50.210 -61.128  1.00  0.00     0.003 C 
HETATM   18  C9  UNK   900      31.638 -51.343 -60.148  1.00  0.00     0.005 C 
ENDBRANCH   3  17
TORSDOF 4
ENDMDL
MODEL 5
REMARK VINA RESULT:      -5.8     15.214     16.300
REMARK  4 active torsions:
REMARK  status: ('A' for Active; 'I' for Inactive)
REMARK    1  A    between atoms: O2_2  and  C7_11 
REMARK    2  A    between atoms: O4_4  and  C12_16 
REMARK    3  A    between atoms: C1_5  and  C6_10 
REMARK    4  A    between atoms: C10_14  and  C12_16 
ROOT
HETATM    1  O1  UNK   900      33.538 -49.851 -61.194  1.00  0.00    -0.307 OA
HETATM    2  O3  UNK   900      34.745 -51.585 -60.399  1.00  0.00    -0.259 OA
HETATM    3  C1  UNK   900      32.361 -47.963 -62.175  1.00  0.00     0.020 C 
HETATM    4  C2  UNK   900      32.407 -48.971 -61.005  1.00  0.00     0.171 C 
HETATM    5  C3  UNK   900      31.082 -47.123 -62.061  1.00  0.00     0.014 C 
HETATM    6  C4  UNK   900      31.118 -49.725 -60.816  1.00  0.00     0.001 C 
HETATM    7  C5  UNK   900      29.815 -47.983 -62.065  1.00  0.00     0.065 C 
HETATM    8  C7  UNK   900      29.944 -49.267 -61.288  1.00  0.00     0.052 C 
HETATM    9  C8  UNK   900      31.259 -50.944 -60.056  1.00  0.00     0.027 C 
HETATM   10  C10 UNK   900      32.443 -51.533 -59.842  1.00  0.00     0.041 C 
HETATM   11  C11 UNK   900      33.672 -50.997 -60.477  1.00  0.00     0.292 C 
ENDROOT
BRANCH  10  12
HETATM   12  C12 UNK   900      32.586 -52.788 -59.035  1.00  0.00     0.209 C 
BRANCH  12  13
HETATM   13  O4  UNK   900      33.612 -52.626 -58.075  1.00  0.00    -0.396 OA
HETATM   14  H16 UNK   900      34.459 -52.773 -58.530  1.00  0.00     0.209 HD
ENDBRANCH  12  13
ENDBRANCH  10  12
BRANCH   8  15
HETATM   15  O2  UNK   900      28.766 -49.967 -61.100  1.00  0.00    -0.364 OA
HETATM   16  H13 UNK   900      28.109 -49.619 -61.727  1.00  0.00     0.217 HD
ENDBRANCH   8  15
BRANCH   3  17
HETATM   17  C6  UNK   900      32.480 -48.629 -63.552  1.00  0.00     0.003 C 
HETATM   18  C9  UNK   900      32.536 -47.593 -64.656  1.00  0.00     0.005 C 
ENDBRANCH   3  17
TORSDOF 4
ENDMDL
MODEL 6
REMARK VINA RESULT:      -5.8     16.136     17.266
REMARK  4 active torsions:
REMARK  status: ('A' for Active; 'I' for Inactive)
REMARK    1  A    between atoms: O2_2  and  C7_11 
REMARK    2  A    between atoms: O4_4  and  C12_16 
REMARK    3  A    between atoms: C1_5  and  C6_10 
REMARK    4  A    between atoms: C10_14  and  C12_16 
ROOT
HETATM    1  O1  UNK   900      32.932 -49.002 -61.484  1.00  0.00    -0.307 OA
HETATM    2  O3  UNK   900      30.979 -47.903 -61.757  1.00  0.00    -0.259 OA
HETATM    3  C1  UNK   900      35.119 -50.029 -61.209  1.00  0.00     0.020 C 
HETATM    4  C2  UNK   900      33.601 -50.277 -61.350  1.00  0.00     0.171 C 
HETATM    5  C3  UNK   900      35.818 -51.363 -60.918  1.00  0.00     0.014 C 
HETATM    6  C4  UNK   900      33.026 -51.111 -60.237  1.00  0.00     0.001 C 
HETATM    7  C5  UNK   900      35.281 -52.042 -59.654  1.00  0.00     0.065 C 
HETATM    8  C7  UNK   900      33.790 -51.919 -59.479  1.00  0.00     0.052 C 
HETATM    9  C8  UNK   900      31.594 -50.993 -60.095  1.00  0.00     0.027 C 
HETATM   10  C10 UNK   900      30.891 -49.993 -60.645  1.00  0.00     0.041 C 
HETATM   11  C11 UNK   900      31.585 -48.890 -61.353  1.00  0.00     0.292 C 
ENDROOT
BRANCH  10  12
HETATM   12  C12 UNK   900      29.402 -49.886 -60.511  1.00  0.00     0.209 C 
BRANCH  12  13
HETATM   13  O4  UNK   900      28.815 -49.742 -61.791  1.00  0.00    -0.396 OA
HETATM   14  H16 UNK   900      27.856 -49.656 -61.659  1.00  0.00     0.209 HD
ENDBRANCH  12  13
ENDBRANCH  10  12
BRANCH   8  15
HETATM   15  O2  UNK   900      33.247 -52.687 -58.465  1.00  0.00    -0.364 OA
HETATM   16  H13 UNK   900      32.755 -53.418 -58.875  1.00  0.00     0.217 HD
ENDBRANCH   8  15
BRANCH   3  17
HETATM   17  C6  UNK   900      35.464 -48.968 -60.156  1.00  0.00     0.003 C 
HETATM   18  C9  UNK   900      36.230 -47.817 -60.772  1.00  0.00     0.005 C 
ENDBRANCH   3  17
TORSDOF 4
ENDMDL
MODEL 7
REMARK VINA RESULT:      -5.8     15.772     17.132
REMARK  4 active torsions:
REMARK  status: ('A' for Active; 'I' for Inactive)
REMARK    1  A    between atoms: O2_2  and  C7_11 
REMARK    2  A    between atoms: O4_4  and  C12_16 
REMARK    3  A    between atoms: C1_5  and  C6_10 
REMARK    4  A    between atoms: C10_14  and  C12_16 
ROOT
HETATM    1  O1  UNK   900      36.188 -36.755 -57.648  1.00  0.00    -0.307 OA
HETATM    2  O3  UNK   900      36.634 -34.867 -58.801  1.00  0.00    -0.259 OA
HETATM    3  C1  UNK   900      35.878 -38.791 -56.355  1.00  0.00     0.020 C 
HETATM    4  C2  UNK   900      35.233 -37.799 -57.347  1.00  0.00     0.171 C 
HETATM    5  C3  UNK   900      34.824 -39.815 -55.917  1.00  0.00     0.014 C 
HETATM    6  C4  UNK   900      33.916 -37.249 -56.871  1.00  0.00     0.001 C 
HETATM    7  C5  UNK   900      33.600 -39.157 -55.273  1.00  0.00     0.065 C 
HETATM    8  C7  UNK   900      33.173 -37.875 -55.939  1.00  0.00     0.052 C 
HETATM    9  C8  UNK   900      33.516 -36.030 -57.532  1.00  0.00     0.027 C 
HETATM   10  C10 UNK   900      34.370 -35.270 -58.232  1.00  0.00     0.041 C 
HETATM   11  C11 UNK   900      35.814 -35.609 -58.273  1.00  0.00     0.292 C 
ENDROOT
BRANCH  10  12
HETATM   12  C12 UNK   900      33.945 -34.016 -58.932  1.00  0.00     0.209 C 
BRANCH  12  13
HETATM   13  O4  UNK   900      34.365 -34.056 -60.284  1.00  0.00    -0.396 OA
HETATM   14  H16 UNK   900      34.434 -34.992 -60.536  1.00  0.00     0.209 HD
ENDBRANCH  12  13
ENDBRANCH  10  12
BRANCH   8  15
HETATM   15  O2  UNK   900      31.960 -37.363 -55.516  1.00  0.00    -0.364 OA
HETATM   16  H13 UNK   900      31.410 -37.210 -56.304  1.00  0.00     0.217 HD
ENDBRANCH   8  15
BRANCH   3  17
HETATM   17  C6  UNK   900      36.534 -38.103 -55.150  1.00  0.00     0.003 C 
HETATM   18  C9  UNK   900      37.936 -38.626 -54.919  1.00  0.00     0.005 C 
ENDBRANCH   3  17
TORSDOF 4
ENDMDL
MODEL 8
REMARK VINA RESULT:      -5.7     15.315     17.106
REMARK  4 active torsions:
REMARK  status: ('A' for Active; 'I' for Inactive)
REMARK    1  A    between atoms: O2_2  and  C7_11 
REMARK    2  A    between atoms: O4_4  and  C12_16 
REMARK    3  A    between atoms: C1_5  and  C6_10 
REMARK    4  A    between atoms: C10_14  and  C12_16 
ROOT
HETATM    1  O1  UNK   900      36.228 -36.750 -56.567  1.00  0.00    -0.307 OA
HETATM    2  O3  UNK   900      36.466 -38.741 -55.531  1.00  0.00    -0.259 OA
HETATM    3  C1  UNK   900      36.137 -34.624 -57.744  1.00  0.00     0.020 C 
HETATM    4  C2  UNK   900      35.411 -35.574 -56.766  1.00  0.00     0.171 C 
HETATM    5  C3  UNK   900      35.212 -33.446 -58.075  1.00  0.00     0.014 C 
HETATM    6  C4  UNK   900      34.009 -35.915 -57.194  1.00  0.00     0.001 C 
HETATM    7  C5  UNK   900      33.880 -33.898 -58.681  1.00  0.00     0.065 C 
HETATM    8  C7  UNK   900      33.315 -35.145 -58.053  1.00  0.00     0.052 C 
HETATM    9  C8  UNK   900      33.479 -37.104 -56.571  1.00  0.00     0.027 C 
HETATM   10  C10 UNK   900      34.253 -38.008 -55.955  1.00  0.00     0.041 C 
HETATM   11  C11 UNK   900      35.730 -37.868 -55.978  1.00  0.00     0.292 C 
ENDROOT
BRANCH  10  12
HETATM   12  C12 UNK   900      33.695 -39.230 -55.292  1.00  0.00     0.209 C 
BRANCH  12  13
HETATM   13  O4  UNK   900      34.184 -40.391 -55.939  1.00  0.00    -0.396 OA
HETATM   14  H16 UNK   900      34.953 -40.122 -56.470  1.00  0.00     0.209 HD
ENDBRANCH  12  13
ENDBRANCH  10  12
BRANCH   8  15
HETATM   15  O2  UNK   900      32.024 -35.467 -58.433  1.00  0.00    -0.364 OA
HETATM   16  H13 UNK   900      32.070 -35.913 -59.296  1.00  0.00     0.217 HD
ENDBRANCH   8  15
BRANCH   3  17
HETATM   17  C6  UNK   900      36.633 -35.328 -59.014  1.00  0.00     0.003 C 
HETATM   18  C9  UNK   900      37.963 -34.762 -59.468  1.00  0.00     0.005 C 
ENDBRANCH   3  17
TORSDOF 4
ENDMDL
MODEL 9
REMARK VINA RESULT:      -5.5     16.780     18.127
REMARK  4 active torsions:
REMARK  status: ('A' for Active; 'I' for Inactive)
REMARK    1  A    between atoms: O2_2  and  C7_11 
REMARK    2  A    between atoms: O4_4  and  C12_16 
REMARK    3  A    between atoms: C1_5  and  C6_10 
REMARK    4  A    between atoms: C10_14  and  C12_16 
ROOT
HETATM    1  O1  UNK   900      34.362 -51.238 -60.952  1.00  0.00    -0.307 OA
HETATM    2  O3  UNK   900      36.585 -51.436 -61.290  1.00  0.00    -0.259 OA
HETATM    3  C1  UNK   900      31.961 -51.200 -60.566  1.00  0.00     0.020 C 
HETATM    4  C2  UNK   900      33.204 -50.373 -60.966  1.00  0.00     0.171 C 
HETATM    5  C3  UNK   900      30.757 -50.260 -60.434  1.00  0.00     0.014 C 
HETATM    6  C4  UNK   900      33.397 -49.142 -60.123  1.00  0.00     0.001 C 
HETATM    7  C5  UNK   900      30.992 -49.146 -59.410  1.00  0.00     0.065 C 
HETATM    8  C7  UNK   900      32.389 -48.582 -59.429  1.00  0.00     0.052 C 
HETATM    9  C8  UNK   900      34.738 -48.606 -60.167  1.00  0.00     0.027 C 
HETATM   10  C10 UNK   900      35.786 -49.311 -60.614  1.00  0.00     0.041 C 
HETATM   11  C11 UNK   900      35.623 -50.735 -60.997  1.00  0.00     0.292 C 
ENDROOT
BRANCH  10  12
HETATM   12  C12 UNK   900      37.171 -48.744 -60.676  1.00  0.00     0.209 C 
BRANCH  12  13
HETATM   13  O4  UNK   900      37.990 -49.371 -59.706  1.00  0.00    -0.396 OA
HETATM   14  H16 UNK   900      37.456 -49.470 -58.900  1.00  0.00     0.209 HD
ENDBRANCH  12  13
ENDBRANCH  10  12
BRANCH   8  15
HETATM   15  O2  UNK   900      32.580 -47.445 -58.665  1.00  0.00    -0.364 OA
HETATM   16  H13 UNK   900      32.395 -46.674 -59.227  1.00  0.00     0.217 HD
ENDBRANCH   8  15
BRANCH   3  17
HETATM   17  C6  UNK   900      32.173 -52.032 -59.294  1.00  0.00     0.003 C 
HETATM   18  C9  UNK   900      31.931 -53.503 -59.558  1.00  0.00     0.005 C 
ENDBRANCH   3  17
TORSDOF 4
ENDMDL
