MODEL 1
REMARK VINA RESULT:      -5.8      0.000      0.000
REMARK  0 active torsions:
REMARK  status: ('A' for Active; 'I' for Inactive)
ROOT
HETATM    1  O1  UNK   900      24.309 -39.987 -66.727  1.00  0.00    -0.347 OA
HETATM    2  O2  UNK   900      23.500 -38.462 -68.382  1.00  0.00    -0.353 OA
HETATM    3  O3  UNK   900      22.187 -37.414 -65.448  1.00  0.00    -0.311 OA
HETATM    4  O4  UNK   900      20.111 -38.448 -65.210  1.00  0.00    -0.265 OA
HETATM    5  C1  UNK   900      23.459 -39.261 -65.804  1.00  0.00     0.170 C 
HETATM    6  C2  UNK   900      22.073 -39.842 -65.798  1.00  0.00     0.122 C 
HETATM    7  C3  UNK   900      23.499 -39.888 -67.928  1.00  0.00     0.162 C 
HETATM    8  C4  UNK   900      22.050 -40.349 -67.330  1.00  0.00     0.085 C 
HETATM    9  C5  UNK   900      23.587 -37.771 -65.823  1.00  0.00     0.185 C 
HETATM   10  C6  UNK   900      23.965 -37.431 -67.369  1.00  0.00     0.206 C 
HETATM   11  C7  UNK   900      21.309 -38.527 -65.436  1.00  0.00     0.266 C 
HETATM   12  C8  UNK   900      24.007 -40.775 -69.040  1.00  0.00     0.079 C 
ENDROOT
TORSDOF 0
ENDMDL
MODEL 2
REMARK VINA RESULT:      -5.7      3.561      5.370
REMARK  0 active torsions:
REMARK  status: ('A' for Active; 'I' for Inactive)
ROOT
HETATM    1  O1  UNK   900      22.189 -38.411 -69.535  1.00  0.00    -0.347 OA
HETATM    2  O2  UNK   900      23.550 -40.354 -69.841  1.00  0.00    -0.353 OA
HETATM    3  O3  UNK   900      22.935 -39.165 -72.945  1.00  0.00    -0.311 OA
HETATM    4  O4  UNK   900      21.017 -40.235 -73.730  1.00  0.00    -0.265 OA
HETATM    5  C1  UNK   900      22.115 -38.371 -70.982  1.00  0.00     0.170 C 
HETATM    6  C2  UNK   900      20.970 -39.213 -71.473  1.00  0.00     0.122 C 
HETATM    7  C3  UNK   900      22.235 -39.848 -69.336  1.00  0.00     0.162 C 
HETATM    8  C4  UNK   900      20.986 -40.305 -70.285  1.00  0.00     0.085 C 
HETATM    9  C5  UNK   900      23.417 -38.478 -71.711  1.00  0.00     0.185 C 
HETATM   10  C6  UNK   900      24.330 -39.417 -70.745  1.00  0.00     0.206 C 
HETATM   11  C7  UNK   900      21.590 -39.604 -72.854  1.00  0.00     0.266 C 
HETATM   12  C8  UNK   900      22.067 -40.233 -67.885  1.00  0.00     0.079 C 
ENDROOT
TORSDOF 0
ENDMDL
MODEL 3
REMARK VINA RESULT:      -5.7      2.230      3.871
REMARK  0 active torsions:
REMARK  status: ('A' for Active; 'I' for Inactive)
ROOT
HETATM    1  O1  UNK   900      23.225 -38.658 -67.738  1.00  0.00    -0.347 OA
HETATM    2  O2  UNK   900      23.170 -41.044 -67.575  1.00  0.00    -0.353 OA
HETATM    3  O3  UNK   900      22.060 -40.310 -70.683  1.00  0.00    -0.311 OA
HETATM    4  O4  UNK   900      19.738 -40.125 -70.564  1.00  0.00    -0.265 OA
HETATM    5  C1  UNK   900      22.612 -38.844 -69.038  1.00  0.00     0.170 C 
HETATM    6  C2  UNK   900      21.115 -38.895 -68.911  1.00  0.00     0.122 C 
HETATM    7  C3  UNK   900      22.617 -39.766 -67.025  1.00  0.00     0.162 C 
HETATM    8  C4  UNK   900      21.051 -39.539 -67.432  1.00  0.00     0.085 C 
HETATM    9  C5  UNK   900      23.267 -39.844 -69.938  1.00  0.00     0.185 C 
HETATM   10  C6  UNK   900      23.879 -40.951 -68.913  1.00  0.00     0.206 C 
HETATM   11  C7  UNK   900      20.844 -39.822 -70.140  1.00  0.00     0.266 C 
HETATM   12  C8  UNK   900      22.872 -39.702 -65.537  1.00  0.00     0.079 C 
ENDROOT
TORSDOF 0
ENDMDL
MODEL 4
REMARK VINA RESULT:      -5.7      2.006      2.789
REMARK  0 active torsions:
REMARK  status: ('A' for Active; 'I' for Inactive)
ROOT
HETATM    1  O1  UNK   900      22.982 -39.963 -69.160  1.00  0.00    -0.347 OA
HETATM    2  O2  UNK   900      21.128 -41.462 -68.974  1.00  0.00    -0.353 OA
HETATM    3  O3  UNK   900      20.165 -38.613 -67.428  1.00  0.00    -0.311 OA
HETATM    4  O4  UNK   900      20.720 -38.827 -65.174  1.00  0.00    -0.265 OA
HETATM    5  C1  UNK   900      22.197 -39.067 -68.334  1.00  0.00     0.170 C 
HETATM    6  C2  UNK   900      22.444 -39.342 -66.877  1.00  0.00     0.122 C 
HETATM    7  C3  UNK   900      22.560 -41.235 -68.603  1.00  0.00     0.162 C 
HETATM    8  C4  UNK   900      22.748 -40.922 -67.010  1.00  0.00     0.085 C 
HETATM    9  C5  UNK   900      20.783 -38.840 -68.768  1.00  0.00     0.185 C 
HETATM   10  C6  UNK   900      20.357 -40.249 -69.463  1.00  0.00     0.206 C 
HETATM   11  C7  UNK   900      21.042 -38.894 -66.351  1.00  0.00     0.266 C 
HETATM   12  C8  UNK   900      23.401 -42.388 -69.098  1.00  0.00     0.079 C 
ENDROOT
TORSDOF 0
ENDMDL
MODEL 5
REMARK VINA RESULT:      -5.6      3.301      4.643
REMARK  0 active torsions:
REMARK  status: ('A' for Active; 'I' for Inactive)
ROOT
HETATM    1  O1  UNK   900      22.445 -38.542 -69.973  1.00  0.00    -0.347 OA
HETATM    2  O2  UNK   900      21.410 -40.093 -71.471  1.00  0.00    -0.353 OA
HETATM    3  O3  UNK   900      21.880 -41.781 -68.579  1.00  0.00    -0.311 OA
HETATM    4  O4  UNK   900      23.954 -42.837 -68.722  1.00  0.00    -0.265 OA
HETATM    5  C1  UNK   900      22.534 -39.659 -69.055  1.00  0.00     0.170 C 
HETATM    6  C2  UNK   900      23.805 -40.428 -69.285  1.00  0.00     0.122 C 
HETATM    7  C3  UNK   900      22.621 -39.248 -71.229  1.00  0.00     0.162 C 
HETATM    8  C4  UNK   900      23.941 -40.141 -70.868  1.00  0.00     0.085 C 
HETATM    9  C5  UNK   900      21.277 -40.442 -68.845  1.00  0.00     0.185 C 
HETATM   10  C6  UNK   900      20.507 -40.335 -70.275  1.00  0.00     0.206 C 
HETATM   11  C7  UNK   900      23.276 -41.826 -68.825  1.00  0.00     0.266 C 
HETATM   12  C8  UNK   900      22.824 -38.309 -72.395  1.00  0.00     0.079 C 
ENDROOT
TORSDOF 0
ENDMDL
MODEL 6
REMARK VINA RESULT:      -5.6      2.949      4.977
REMARK  0 active torsions:
REMARK  status: ('A' for Active; 'I' for Inactive)
ROOT
HETATM    1  O1  UNK   900      21.275 -38.115 -69.580  1.00  0.00    -0.347 OA
HETATM    2  O2  UNK   900      22.706 -39.791 -68.649  1.00  0.00    -0.353 OA
HETATM    3  O3  UNK   900      24.650 -37.981 -70.740  1.00  0.00    -0.311 OA
HETATM    4  O4  UNK   900      24.582 -39.023 -72.825  1.00  0.00    -0.265 OA
HETATM    5  C1  UNK   900      22.418 -37.749 -70.392  1.00  0.00     0.170 C 
HETATM    6  C2  UNK   900      22.447 -38.561 -71.656  1.00  0.00     0.122 C 
HETATM    7  C3  UNK   900      21.493 -39.548 -69.491  1.00  0.00     0.162 C 
HETATM    8  C4  UNK   900      21.750 -39.893 -71.068  1.00  0.00     0.085 C 
HETATM    9  C5  UNK   900      23.710 -37.555 -69.662  1.00  0.00     0.185 C 
HETATM   10  C6  UNK   900      23.616 -38.598 -68.417  1.00  0.00     0.206 C 
HETATM   11  C7  UNK   900      23.997 -38.559 -71.858  1.00  0.00     0.266 C 
HETATM   12  C8  UNK   900      20.309 -40.274 -68.896  1.00  0.00     0.079 C 
ENDROOT
TORSDOF 0
ENDMDL
MODEL 7
REMARK VINA RESULT:      -5.5      2.859      3.808
REMARK  0 active torsions:
REMARK  status: ('A' for Active; 'I' for Inactive)
ROOT
HETATM    1  O1  UNK   900      22.135 -37.914 -68.249  1.00  0.00    -0.347 OA
HETATM    2  O2  UNK   900      23.277 -39.019 -70.037  1.00  0.00    -0.353 OA
HETATM    3  O3  UNK   900      19.997 -39.719 -70.468  1.00  0.00    -0.311 OA
HETATM    4  O4  UNK   900      19.562 -41.717 -69.347  1.00  0.00    -0.265 OA
HETATM    5  C1  UNK   900      20.943 -38.558 -68.760  1.00  0.00     0.170 C 
HETATM    6  C2  UNK   900      20.778 -39.921 -68.148  1.00  0.00     0.122 C 
HETATM    7  C3  UNK   900      23.113 -38.943 -68.551  1.00  0.00     0.162 C 
HETATM    8  C4  UNK   900      22.345 -40.250 -67.941  1.00  0.00     0.085 C 
HETATM    9  C5  UNK   900      20.700 -38.424 -70.230  1.00  0.00     0.185 C 
HETATM   10  C6  UNK   900      22.195 -38.355 -70.869  1.00  0.00     0.206 C 
HETATM   11  C7  UNK   900      20.029 -40.587 -69.348  1.00  0.00     0.266 C 
HETATM   12  C8  UNK   900      24.453 -38.672 -67.907  1.00  0.00     0.079 C 
ENDROOT
TORSDOF 0
ENDMDL
MODEL 8
REMARK VINA RESULT:      -5.4      3.377      5.139
REMARK  0 active torsions:
REMARK  status: ('A' for Active; 'I' for Inactive)
ROOT
HETATM    1  O1  UNK   900      25.504 -36.617 -69.107  1.00  0.00    -0.347 OA
HETATM    2  O2  UNK   900      25.144 -36.771 -66.747  1.00  0.00    -0.353 OA
HETATM    3  O3  UNK   900      22.870 -34.540 -67.880  1.00  0.00    -0.311 OA
HETATM    4  O4  UNK   900      23.836 -32.424 -67.718  1.00  0.00    -0.265 OA
HETATM    5  C1  UNK   900      24.496 -35.577 -69.080  1.00  0.00     0.170 C 
HETATM    6  C2  UNK   900      25.127 -34.241 -68.801  1.00  0.00     0.122 C 
HETATM    7  C3  UNK   900      26.122 -36.388 -67.813  1.00  0.00     0.162 C 
HETATM    8  C4  UNK   900      26.352 -34.772 -67.894  1.00  0.00     0.085 C 
HETATM    9  C5  UNK   900      23.226 -35.907 -68.362  1.00  0.00     0.185 C 
HETATM   10  C6  UNK   900      23.698 -36.924 -67.181  1.00  0.00     0.206 C 
HETATM   11  C7  UNK   900      23.900 -33.587 -68.087  1.00  0.00     0.266 C 
HETATM   12  C8  UNK   900      27.399 -37.175 -67.637  1.00  0.00     0.079 C 
ENDROOT
TORSDOF 0
ENDMDL
MODEL 9
REMARK VINA RESULT:      -5.4      1.808      2.601
REMARK  0 active torsions:
REMARK  status: ('A' for Active; 'I' for Inactive)
ROOT
HETATM    1  O1  UNK   900      23.698 -40.108 -66.633  1.00  0.00    -0.347 OA
HETATM    2  O2  UNK   900      23.402 -37.911 -67.532  1.00  0.00    -0.353 OA
HETATM    3  O3  UNK   900      20.320 -39.298 -67.464  1.00  0.00    -0.311 OA
HETATM    4  O4  UNK   900      19.975 -40.322 -69.530  1.00  0.00    -0.265 OA
HETATM    5  C1  UNK   900      22.286 -40.288 -66.905  1.00  0.00     0.170 C 
HETATM    6  C2  UNK   900      22.081 -40.787 -68.309  1.00  0.00     0.122 C 
HETATM    7  C3  UNK   900      24.049 -39.244 -67.746  1.00  0.00     0.162 C 
HETATM    8  C4  UNK   900      23.367 -40.076 -68.976  1.00  0.00     0.085 C 
HETATM    9  C5  UNK   900      21.377 -39.207 -66.414  1.00  0.00     0.185 C 
HETATM   10  C6  UNK   900      22.286 -37.860 -66.505  1.00  0.00     0.206 C 
HETATM   11  C7  UNK   900      20.672 -40.150 -68.541  1.00  0.00     0.266 C 
HETATM   12  C8  UNK   900      25.542 -39.066 -67.888  1.00  0.00     0.079 C 
ENDROOT
TORSDOF 0
ENDMDL
