MODEL 1
REMARK VINA RESULT:      -5.9      0.000      0.000
REMARK  6 active torsions:
REMARK  status: ('A' for Active; 'I' for Inactive)
REMARK    1  A    between atoms: O1_1  and  C1_5 
REMARK    2  A    between atoms: O2_2  and  C2_6 
REMARK    3  A    between atoms: O3_3  and  C9_13 
REMARK    4  A    between atoms: O4_4  and  C15_19 
REMARK    5  A    between atoms: C10_14  and  C13_17 
REMARK    6  A    between atoms: C13_17  and  C15_19 
ROOT
HETATM    1  C1  UNK   900      24.559 -20.697 -71.327  1.00  0.00     0.093 C 
HETATM    2  C2  UNK   900      23.339 -20.805 -72.299  1.00  0.00     0.115 C 
HETATM    3  C3  UNK   900      25.817 -20.902 -72.203  1.00  0.00     0.080 C 
HETATM    4  C4  UNK   900      23.884 -21.779 -73.317  1.00  0.00     0.019 A 
HETATM    5  C5  UNK   900      25.284 -21.820 -73.264  1.00  0.00    -0.037 A 
HETATM    6  C6  UNK   900      24.634 -19.411 -70.511  1.00  0.00     0.050 C 
HETATM    7  C7  UNK   900      26.011 -22.612 -74.140  1.00  0.00    -0.048 A 
HETATM    8  C8  UNK   900      22.952 -19.494 -72.984  1.00  0.00     0.055 C 
HETATM    9  C9  UNK   900      23.186 -22.537 -74.244  1.00  0.00     0.082 A 
HETATM   10  C10 UNK   900      25.312 -23.382 -75.072  1.00  0.00    -0.041 A 
HETATM   11  C11 UNK   900      23.910 -23.347 -75.123  1.00  0.00    -0.021 A 
HETATM   12  C12 UNK   900      27.501 -22.631 -74.084  1.00  0.00     0.049 C 
HETATM   13  C14 UNK   900      23.178 -24.177 -76.130  1.00  0.00     0.052 C 
ENDROOT
BRANCH  10  14
HETATM   14  C13 UNK   900      26.068 -24.251 -76.027  1.00  0.00     0.066 C 
BRANCH  14  15
HETATM   15  C15 UNK   900      26.799 -23.450 -77.105  1.00  0.00     0.171 C 
BRANCH  15  16
HETATM   16  O4  UNK   900      25.945 -22.427 -77.603  1.00  0.00    -0.396 OA
HETATM   17  C16 UNK   900      26.667 -21.237 -77.889  1.00  0.00     0.201 C 
ENDBRANCH  15  16
ENDBRANCH  14  15
ENDBRANCH  10  14
BRANCH   9  18
HETATM   18  O3  UNK   900      21.828 -22.488 -74.304  1.00  0.00    -0.359 OA
HETATM   19  H19 UNK   900      21.507 -21.577 -74.222  1.00  0.00     0.217 HD
ENDBRANCH   9  18
BRANCH   1  20
HETATM   20  O1  UNK   900      24.522 -21.789 -70.391  1.00  0.00    -0.386 OA
HETATM   21  H9  UNK   900      23.592 -22.007 -70.217  1.00  0.00     0.210 HD
ENDBRANCH   1  20
BRANCH   2  22
HETATM   22  O2  UNK   900      22.195 -21.294 -71.608  1.00  0.00    -0.382 OA
HETATM   23  H10 UNK   900      22.472 -21.538 -70.709  1.00  0.00     0.211 HD
ENDBRANCH   2  22
TORSDOF 6
ENDMDL
MODEL 2
REMARK VINA RESULT:      -5.3     22.364     24.899
REMARK  6 active torsions:
REMARK  status: ('A' for Active; 'I' for Inactive)
REMARK    1  A    between atoms: O1_1  and  C1_5 
REMARK    2  A    between atoms: O2_2  and  C2_6 
REMARK    3  A    between atoms: O3_3  and  C9_13 
REMARK    4  A    between atoms: O4_4  and  C15_19 
REMARK    5  A    between atoms: C10_14  and  C13_17 
REMARK    6  A    between atoms: C13_17  and  C15_19 
ROOT
HETATM    1  C1  UNK   900      22.859 -31.979 -49.321  1.00  0.00     0.093 C 
HETATM    2  C2  UNK   900      21.959 -30.785 -48.864  1.00  0.00     0.115 C 
HETATM    3  C3  UNK   900      24.202 -31.352 -49.763  1.00  0.00     0.080 C 
HETATM    4  C4  UNK   900      22.474 -29.691 -49.770  1.00  0.00     0.019 A 
HETATM    5  C5  UNK   900      23.745 -30.013 -50.265  1.00  0.00    -0.037 A 
HETATM    6  C6  UNK   900      23.057 -33.083 -48.288  1.00  0.00     0.050 C 
HETATM    7  C7  UNK   900      24.438 -29.136 -51.084  1.00  0.00    -0.048 A 
HETATM    8  C8  UNK   900      22.135 -30.378 -47.401  1.00  0.00     0.055 C 
HETATM    9  C9  UNK   900      21.871 -28.485 -50.093  1.00  0.00     0.082 A 
HETATM   10  C10 UNK   900      23.833 -27.922 -51.417  1.00  0.00    -0.041 A 
HETATM   11  C11 UNK   900      22.557 -27.600 -50.927  1.00  0.00    -0.021 A 
HETATM   12  C12 UNK   900      25.798 -29.484 -51.588  1.00  0.00     0.049 C 
HETATM   13  C14 UNK   900      21.926 -26.294 -51.293  1.00  0.00     0.052 C 
ENDROOT
BRANCH  10  14
HETATM   14  C13 UNK   900      24.554 -26.956 -52.304  1.00  0.00     0.066 C 
BRANCH  14  15
HETATM   15  C15 UNK   900      25.524 -26.058 -51.535  1.00  0.00     0.171 C 
BRANCH  15  16
HETATM   16  O4  UNK   900      26.779 -26.026 -52.204  1.00  0.00    -0.396 OA
HETATM   17  C16 UNK   900      26.659 -26.438 -53.558  1.00  0.00     0.201 C 
ENDBRANCH  15  16
ENDBRANCH  14  15
ENDBRANCH  10  14
BRANCH   9  18
HETATM   18  O3  UNK   900      20.643 -28.167 -49.603  1.00  0.00    -0.359 OA
HETATM   19  H19 UNK   900      20.074 -27.798 -50.296  1.00  0.00     0.217 HD
ENDBRANCH   9  18
BRANCH   1  20
HETATM   20  O1  UNK   900      22.283 -32.592 -50.488  1.00  0.00    -0.386 OA
HETATM   21  H9  UNK   900      23.008 -32.872 -51.072  1.00  0.00     0.210 HD
ENDBRANCH   1  20
BRANCH   2  22
HETATM   22  O2  UNK   900      20.586 -31.090 -49.074  1.00  0.00    -0.382 OA
HETATM   23  H10 UNK   900      20.373 -31.883 -48.554  1.00  0.00     0.211 HD
ENDBRANCH   2  22
TORSDOF 6
ENDMDL
MODEL 3
REMARK VINA RESULT:      -5.3     46.297     47.302
REMARK  6 active torsions:
REMARK  status: ('A' for Active; 'I' for Inactive)
REMARK    1  A    between atoms: O1_1  and  C1_5 
REMARK    2  A    between atoms: O2_2  and  C2_6 
REMARK    3  A    between atoms: O3_3  and  C9_13 
REMARK    4  A    between atoms: O4_4  and  C15_19 
REMARK    5  A    between atoms: C10_14  and  C13_17 
REMARK    6  A    between atoms: C13_17  and  C15_19 
ROOT
HETATM    1  C1  UNK   900       0.909 -60.329 -62.664  1.00  0.00     0.093 C 
HETATM    2  C2  UNK   900       1.344 -60.637 -61.194  1.00  0.00     0.115 C 
HETATM    3  C3  UNK   900       1.331 -61.562 -63.497  1.00  0.00     0.080 C 
HETATM    4  C4  UNK   900       2.564 -61.494 -61.443  1.00  0.00     0.019 A 
HETATM    5  C5  UNK   900       2.544 -62.021 -62.741  1.00  0.00    -0.037 A 
HETATM    6  C6  UNK   900      -0.566 -59.990 -62.853  1.00  0.00     0.050 C 
HETATM    7  C7  UNK   900       3.541 -62.877 -63.181  1.00  0.00    -0.048 A 
HETATM    8  C8  UNK   900       0.315 -61.417 -60.375  1.00  0.00     0.055 C 
HETATM    9  C9  UNK   900       3.589 -61.809 -60.564  1.00  0.00     0.082 A 
HETATM   10  C10 UNK   900       4.578 -63.193 -62.302  1.00  0.00    -0.041 A 
HETATM   11  C11 UNK   900       4.604 -62.662 -61.003  1.00  0.00    -0.021 A 
HETATM   12  C12 UNK   900       3.497 -63.445 -64.560  1.00  0.00     0.049 C 
HETATM   13  C14 UNK   900       5.722 -63.014 -60.074  1.00  0.00     0.052 C 
ENDROOT
BRANCH  10  14
HETATM   14  C13 UNK   900       5.673 -64.111 -62.750  1.00  0.00     0.066 C 
BRANCH  14  15
HETATM   15  C15 UNK   900       5.407 -65.572 -62.384  1.00  0.00     0.171 C 
BRANCH  15  16
HETATM   16  O4  UNK   900       6.261 -66.418 -63.144  1.00  0.00    -0.396 OA
HETATM   17  C16 UNK   900       6.573 -65.847 -64.407  1.00  0.00     0.201 C 
ENDBRANCH  15  16
ENDBRANCH  14  15
ENDBRANCH  10  14
BRANCH   9  18
HETATM   18  O3  UNK   900       3.601 -61.307 -59.300  1.00  0.00    -0.359 OA
HETATM   19  H19 UNK   900       3.436 -60.352 -59.301  1.00  0.00     0.217 HD
ENDBRANCH   9  18
BRANCH   1  20
HETATM   20  O1  UNK   900       1.666 -59.212 -63.163  1.00  0.00    -0.386 OA
HETATM   21  H9  UNK   900       2.010 -58.715 -62.402  1.00  0.00     0.210 HD
ENDBRANCH   1  20
BRANCH   2  22
HETATM   22  O2  UNK   900       1.636 -59.430 -60.500  1.00  0.00    -0.382 OA
HETATM   23  H10 UNK   900       1.938 -59.666 -59.607  1.00  0.00     0.211 HD
ENDBRANCH   2  22
TORSDOF 6
ENDMDL
MODEL 4
REMARK VINA RESULT:      -5.2     51.265     52.500
REMARK  6 active torsions:
REMARK  status: ('A' for Active; 'I' for Inactive)
REMARK    1  A    between atoms: O1_1  and  C1_5 
REMARK    2  A    between atoms: O2_2  and  C2_6 
REMARK    3  A    between atoms: O3_3  and  C9_13 
REMARK    4  A    between atoms: O4_4  and  C15_19 
REMARK    5  A    between atoms: C10_14  and  C13_17 
REMARK    6  A    between atoms: C13_17  and  C15_19 
ROOT
HETATM    1  C1  UNK   900      28.813 -59.075 -38.492  1.00  0.00     0.093 C 
HETATM    2  C2  UNK   900      28.217 -60.519 -38.550  1.00  0.00     0.115 C 
HETATM    3  C3  UNK   900      27.937 -58.295 -37.485  1.00  0.00     0.080 C 
HETATM    4  C4  UNK   900      26.760 -60.225 -38.282  1.00  0.00     0.019 A 
HETATM    5  C5  UNK   900      26.610 -58.973 -37.671  1.00  0.00    -0.037 A 
HETATM    6  C6  UNK   900      30.296 -58.993 -38.142  1.00  0.00     0.050 C 
HETATM    7  C7  UNK   900      25.362 -58.507 -37.289  1.00  0.00    -0.048 A 
HETATM    8  C8  UNK   900      28.761 -61.476 -37.488  1.00  0.00     0.055 C 
HETATM    9  C9  UNK   900      25.659 -61.031 -38.529  1.00  0.00     0.082 A 
HETATM   10  C10 UNK   900      24.249 -59.312 -37.540  1.00  0.00    -0.041 A 
HETATM   11  C11 UNK   900      24.395 -60.564 -38.157  1.00  0.00    -0.021 A 
HETATM   12  C12 UNK   900      25.220 -57.180 -36.623  1.00  0.00     0.049 C 
HETATM   13  C14 UNK   900      23.192 -61.415 -38.416  1.00  0.00     0.052 C 
ENDROOT
BRANCH  10  14
HETATM   14  C13 UNK   900      22.887 -58.834 -37.144  1.00  0.00     0.066 C 
BRANCH  14  15
HETATM   15  C15 UNK   900      22.490 -59.279 -35.736  1.00  0.00     0.171 C 
BRANCH  15  16
HETATM   16  O4  UNK   900      21.080 -59.176 -35.580  1.00  0.00    -0.396 OA
HETATM   17  C16 UNK   900      20.390 -59.823 -36.640  1.00  0.00     0.201 C 
ENDBRANCH  15  16
ENDBRANCH  14  15
ENDBRANCH  10  14
BRANCH   9  18
HETATM   18  O3  UNK   900      25.805 -62.252 -39.110  1.00  0.00    -0.359 OA
HETATM   19  H19 UNK   900      26.141 -62.903 -38.476  1.00  0.00     0.217 HD
ENDBRANCH   9  18
BRANCH   1  20
HETATM   20  O1  UNK   900      28.646 -58.437 -39.770  1.00  0.00    -0.386 OA
HETATM   21  H9  UNK   900      27.969 -58.927 -40.267  1.00  0.00     0.210 HD
ENDBRANCH   1  20
BRANCH   2  22
HETATM   22  O2  UNK   900      28.448 -61.101 -39.827  1.00  0.00    -0.382 OA
HETATM   23  H10 UNK   900      27.893 -60.634 -40.473  1.00  0.00     0.211 HD
ENDBRANCH   2  22
TORSDOF 6
ENDMDL
MODEL 5
REMARK VINA RESULT:      -5.1     43.888     45.144
REMARK  6 active torsions:
REMARK  status: ('A' for Active; 'I' for Inactive)
REMARK    1  A    between atoms: O1_1  and  C1_5 
REMARK    2  A    between atoms: O2_2  and  C2_6 
REMARK    3  A    between atoms: O3_3  and  C9_13 
REMARK    4  A    between atoms: O4_4  and  C15_19 
REMARK    5  A    between atoms: C10_14  and  C13_17 
REMARK    6  A    between atoms: C13_17  and  C15_19 
ROOT
HETATM    1  C1  UNK   900      21.277 -65.763 -67.066  1.00  0.00     0.093 C 
HETATM    2  C2  UNK   900      21.848 -66.547 -65.841  1.00  0.00     0.115 C 
HETATM    3  C3  UNK   900      22.270 -66.009 -68.226  1.00  0.00     0.080 C 
HETATM    4  C4  UNK   900      23.330 -66.457 -66.123  1.00  0.00     0.019 A 
HETATM    5  C5  UNK   900      23.560 -66.164 -67.474  1.00  0.00    -0.037 A 
HETATM    6  C6  UNK   900      19.845 -66.112 -67.457  1.00  0.00     0.050 C 
HETATM    7  C7  UNK   900      24.848 -66.077 -67.979  1.00  0.00    -0.048 A 
HETATM    8  C8  UNK   900      21.418 -68.012 -65.765  1.00  0.00     0.055 C 
HETATM    9  C9  UNK   900      24.387 -66.662 -65.251  1.00  0.00     0.082 A 
HETATM   10  C10 UNK   900      25.917 -66.277 -67.102  1.00  0.00    -0.041 A 
HETATM   11  C11 UNK   900      25.689 -66.566 -65.748  1.00  0.00    -0.021 A 
HETATM   12  C12 UNK   900      25.078 -65.783 -69.422  1.00  0.00     0.049 C 
HETATM   13  C14 UNK   900      26.847 -66.779 -64.825  1.00  0.00     0.052 C 
ENDROOT
BRANCH  10  14
HETATM   14  C13 UNK   900      27.320 -66.185 -67.616  1.00  0.00     0.066 C 
BRANCH  14  15
HETATM   15  C15 UNK   900      27.886 -67.542 -68.039  1.00  0.00     0.171 C 
BRANCH  15  16
HETATM   16  O4  UNK   900      29.174 -67.723 -67.463  1.00  0.00    -0.396 OA
HETATM   17  C16 UNK   900      29.776 -66.480 -67.129  1.00  0.00     0.201 C 
ENDBRANCH  15  16
ENDBRANCH  14  15
ENDBRANCH  10  14
BRANCH   9  18
HETATM   18  O3  UNK   900      24.164 -66.960 -63.942  1.00  0.00    -0.359 OA
HETATM   19  H19 UNK   900      23.263 -66.718 -63.678  1.00  0.00     0.217 HD
ENDBRANCH   9  18
BRANCH   1  20
HETATM   20  O1  UNK   900      21.306 -64.352 -66.787  1.00  0.00    -0.386 OA
HETATM   21  H9  UNK   900      22.151 -63.997 -67.108  1.00  0.00     0.210 HD
ENDBRANCH   1  20
BRANCH   2  22
HETATM   22  O2  UNK   900      21.468 -65.914 -64.625  1.00  0.00    -0.382 OA
HETATM   23  H10 UNK   900      20.671 -66.359 -64.293  1.00  0.00     0.211 HD
ENDBRANCH   2  22
TORSDOF 6
ENDMDL
MODEL 6
REMARK VINA RESULT:      -5.1     14.011     15.979
REMARK  6 active torsions:
REMARK  status: ('A' for Active; 'I' for Inactive)
REMARK    1  A    between atoms: O1_1  and  C1_5 
REMARK    2  A    between atoms: O2_2  and  C2_6 
REMARK    3  A    between atoms: O3_3  and  C9_13 
REMARK    4  A    between atoms: O4_4  and  C15_19 
REMARK    5  A    between atoms: C10_14  and  C13_17 
REMARK    6  A    between atoms: C13_17  and  C15_19 
ROOT
HETATM    1  C1  UNK   900      10.621 -28.202 -77.934  1.00  0.00     0.093 C 
HETATM    2  C2  UNK   900      10.043 -28.409 -79.372  1.00  0.00     0.115 C 
HETATM    3  C3  UNK   900      10.897 -26.685 -77.804  1.00  0.00     0.080 C 
HETATM    4  C4  UNK   900      10.753 -27.303 -80.116  1.00  0.00     0.019 A 
HETATM    5  C5  UNK   900      11.223 -26.328 -79.226  1.00  0.00    -0.037 A 
HETATM    6  C6  UNK   900       9.750 -28.723 -76.796  1.00  0.00     0.050 C 
HETATM    7  C7  UNK   900      11.869 -25.191 -79.684  1.00  0.00    -0.048 A 
HETATM    8  C8  UNK   900       8.529 -28.227 -79.482  1.00  0.00     0.055 C 
HETATM    9  C9  UNK   900      10.929 -27.159 -81.483  1.00  0.00     0.082 A 
HETATM   10  C10 UNK   900      12.054 -25.044 -81.061  1.00  0.00    -0.041 A 
HETATM   11  C11 UNK   900      11.589 -26.022 -81.954  1.00  0.00    -0.021 A 
HETATM   12  C12 UNK   900      12.347 -24.153 -78.726  1.00  0.00     0.049 C 
HETATM   13  C14 UNK   900      11.794 -25.846 -83.426  1.00  0.00     0.052 C 
ENDROOT
BRANCH  10  14
HETATM   14  C13 UNK   900      12.753 -23.829 -81.587  1.00  0.00     0.066 C 
BRANCH  14  15
HETATM   15  C15 UNK   900      11.788 -22.693 -81.927  1.00  0.00     0.171 C 
BRANCH  15  16
HETATM   16  O4  UNK   900      12.016 -22.254 -83.260  1.00  0.00    -0.396 OA
HETATM   17  C16 UNK   900      10.827 -22.302 -84.036  1.00  0.00     0.201 C 
ENDBRANCH  15  16
ENDBRANCH  14  15
ENDBRANCH  10  14
BRANCH   9  18
HETATM   18  O3  UNK   900      10.462 -28.099 -82.349  1.00  0.00    -0.359 OA
HETATM   19  H19 UNK   900      11.163 -28.405 -82.945  1.00  0.00     0.217 HD
ENDBRANCH   9  18
BRANCH   1  20
HETATM   20  O1  UNK   900      11.893 -28.866 -77.829  1.00  0.00    -0.386 OA
HETATM   21  H9  UNK   900      12.120 -29.226 -78.703  1.00  0.00     0.210 HD
ENDBRANCH   1  20
BRANCH   2  22
HETATM   22  O2  UNK   900      10.365 -29.709 -79.853  1.00  0.00    -0.382 OA
HETATM   23  H10 UNK   900       9.535 -30.204 -79.953  1.00  0.00     0.211 HD
ENDBRANCH   2  22
TORSDOF 6
ENDMDL
MODEL 7
REMARK VINA RESULT:      -5.1     21.823     24.497
REMARK  6 active torsions:
REMARK  status: ('A' for Active; 'I' for Inactive)
REMARK    1  A    between atoms: O1_1  and  C1_5 
REMARK    2  A    between atoms: O2_2  and  C2_6 
REMARK    3  A    between atoms: O3_3  and  C9_13 
REMARK    4  A    between atoms: O4_4  and  C15_19 
REMARK    5  A    between atoms: C10_14  and  C13_17 
REMARK    6  A    between atoms: C13_17  and  C15_19 
ROOT
HETATM    1  C1  UNK   900      21.300 -29.620 -48.880  1.00  0.00     0.093 C 
HETATM    2  C2  UNK   900      22.548 -30.255 -49.573  1.00  0.00     0.115 C 
HETATM    3  C3  UNK   900      20.746 -28.577 -49.879  1.00  0.00     0.080 C 
HETATM    4  C4  UNK   900      23.030 -29.084 -50.397  1.00  0.00     0.019 A 
HETATM    5  C5  UNK   900      22.004 -28.146 -50.575  1.00  0.00    -0.037 A 
HETATM    6  C6  UNK   900      20.227 -30.607 -48.432  1.00  0.00     0.050 C 
HETATM    7  C7  UNK   900      22.200 -27.006 -51.338  1.00  0.00    -0.048 A 
HETATM    8  C8  UNK   900      22.237 -31.442 -50.485  1.00  0.00     0.055 C 
HETATM    9  C9  UNK   900      24.276 -28.892 -50.976  1.00  0.00     0.082 A 
HETATM   10  C10 UNK   900      23.454 -26.805 -51.918  1.00  0.00    -0.041 A 
HETATM   11  C11 UNK   900      24.486 -27.740 -51.737  1.00  0.00    -0.021 A 
HETATM   12  C12 UNK   900      21.093 -26.026 -51.534  1.00  0.00     0.049 C 
HETATM   13  C14 UNK   900      25.822 -27.509 -52.369  1.00  0.00     0.052 C 
ENDROOT
BRANCH  10  14
HETATM   14  C13 UNK   900      23.699 -25.581 -52.745  1.00  0.00     0.066 C 
BRANCH  14  15
HETATM   15  C15 UNK   900      24.318 -24.437 -51.940  1.00  0.00     0.171 C 
BRANCH  15  16
HETATM   16  O4  UNK   900      23.577 -23.243 -52.157  1.00  0.00    -0.396 OA
HETATM   17  C16 UNK   900      22.895 -22.830 -50.981  1.00  0.00     0.201 C 
ENDBRANCH  15  16
ENDBRANCH  14  15
ENDBRANCH  10  14
BRANCH   9  18
HETATM   18  O3  UNK   900      25.268 -29.808 -50.814  1.00  0.00    -0.359 OA
HETATM   19  H19 UNK   900      25.997 -29.647 -51.432  1.00  0.00     0.217 HD
ENDBRANCH   9  18
BRANCH   1  20
HETATM   20  O1  UNK   900      21.719 -28.893 -47.711  1.00  0.00    -0.386 OA
HETATM   21  H9  UNK   900      22.080 -28.039 -48.000  1.00  0.00     0.210 HD
ENDBRANCH   1  20
BRANCH   2  22
HETATM   22  O2  UNK   900      23.492 -30.684 -48.599  1.00  0.00    -0.382 OA
HETATM   23  H10 UNK   900      23.478 -30.044 -47.868  1.00  0.00     0.211 HD
ENDBRANCH   2  22
TORSDOF 6
ENDMDL
MODEL 8
REMARK VINA RESULT:      -5.0     25.579     27.855
REMARK  6 active torsions:
REMARK  status: ('A' for Active; 'I' for Inactive)
REMARK    1  A    between atoms: O1_1  and  C1_5 
REMARK    2  A    between atoms: O2_2  and  C2_6 
REMARK    3  A    between atoms: O3_3  and  C9_13 
REMARK    4  A    between atoms: O4_4  and  C15_19 
REMARK    5  A    between atoms: C10_14  and  C13_17 
REMARK    6  A    between atoms: C13_17  and  C15_19 
ROOT
HETATM    1  C1  UNK   900      19.450 -31.176 -45.908  1.00  0.00     0.093 C 
HETATM    2  C2  UNK   900      20.016 -32.606 -46.182  1.00  0.00     0.115 C 
HETATM    3  C3  UNK   900      19.424 -30.460 -47.279  1.00  0.00     0.080 C 
HETATM    4  C4  UNK   900      20.936 -32.319 -47.345  1.00  0.00     0.019 A 
HETATM    5  C5  UNK   900      20.590 -31.111 -47.966  1.00  0.00    -0.037 A 
HETATM    6  C6  UNK   900      18.091 -31.131 -45.215  1.00  0.00     0.050 C 
HETATM    7  C7  UNK   900      21.268 -30.662 -49.088  1.00  0.00    -0.048 A 
HETATM    8  C8  UNK   900      18.966 -33.641 -46.589  1.00  0.00     0.055 C 
HETATM    9  C9  UNK   900      21.976 -33.096 -47.834  1.00  0.00     0.082 A 
HETATM   10  C10 UNK   900      22.319 -31.438 -49.581  1.00  0.00    -0.041 A 
HETATM   11  C11 UNK   900      22.672 -32.645 -48.958  1.00  0.00    -0.021 A 
HETATM   12  C12 UNK   900      20.875 -29.384 -49.749  1.00  0.00     0.049 C 
HETATM   13  C14 UNK   900      23.799 -33.464 -49.502  1.00  0.00     0.052 C 
ENDROOT
BRANCH  10  14
HETATM   14  C13 UNK   900      23.074 -30.977 -50.789  1.00  0.00     0.066 C 
BRANCH  14  15
HETATM   15  C15 UNK   900      24.306 -30.143 -50.434  1.00  0.00     0.171 C 
BRANCH  15  16
HETATM   16  O4  UNK   900      25.040 -29.848 -51.616  1.00  0.00    -0.396 OA
HETATM   17  C16 UNK   900      25.306 -28.458 -51.732  1.00  0.00     0.201 C 
ENDBRANCH  15  16
ENDBRANCH  14  15
ENDBRANCH  10  14
BRANCH   9  18
HETATM   18  O3  UNK   900      22.304 -34.274 -47.240  1.00  0.00    -0.359 OA
HETATM   19  H19 UNK   900      22.427 -34.975 -47.897  1.00  0.00     0.217 HD
ENDBRANCH   9  18
BRANCH   1  20
HETATM   20  O1  UNK   900      20.370 -30.448 -45.076  1.00  0.00    -0.386 OA
HETATM   21  H9  UNK   900      21.273 -30.672 -45.356  1.00  0.00     0.210 HD
ENDBRANCH   1  20
BRANCH   2  22
HETATM   22  O2  UNK   900      20.697 -33.100 -45.034  1.00  0.00    -0.382 OA
HETATM   23  H10 UNK   900      20.491 -32.510 -44.290  1.00  0.00     0.211 HD
ENDBRANCH   2  22
TORSDOF 6
ENDMDL
MODEL 9
REMARK VINA RESULT:      -4.9     36.486     38.187
REMARK  6 active torsions:
REMARK  status: ('A' for Active; 'I' for Inactive)
REMARK    1  A    between atoms: O1_1  and  C1_5 
REMARK    2  A    between atoms: O2_2  and  C2_6 
REMARK    3  A    between atoms: O3_3  and  C9_13 
REMARK    4  A    between atoms: O4_4  and  C15_19 
REMARK    5  A    between atoms: C10_14  and  C13_17 
REMARK    6  A    between atoms: C13_17  and  C15_19 
ROOT
HETATM    1  C1  UNK   900       3.132 -46.526 -60.302  1.00  0.00     0.093 C 
HETATM    2  C2  UNK   900       2.908 -47.830 -59.470  1.00  0.00     0.115 C 
HETATM    3  C3  UNK   900       2.732 -45.356 -59.373  1.00  0.00     0.080 C 
HETATM    4  C4  UNK   900       1.754 -47.401 -58.593  1.00  0.00     0.019 A 
HETATM    5  C5  UNK   900       1.668 -46.004 -58.535  1.00  0.00    -0.037 A 
HETATM    6  C6  UNK   900       4.534 -46.347 -60.874  1.00  0.00     0.050 C 
HETATM    7  C7  UNK   900       0.711 -45.378 -57.752  1.00  0.00    -0.048 A 
HETATM    8  C8  UNK   900       4.097 -48.245 -58.603  1.00  0.00     0.055 C 
HETATM    9  C9  UNK   900       0.877 -48.198 -57.873  1.00  0.00     0.082 A 
HETATM   10  C10 UNK   900      -0.179 -46.176 -57.029  1.00  0.00    -0.041 A 
HETATM   11  C11 UNK   900      -0.098 -47.576 -57.091  1.00  0.00    -0.021 A 
HETATM   12  C12 UNK   900       0.643 -43.889 -57.685  1.00  0.00     0.049 C 
HETATM   13  C14 UNK   900      -1.058 -48.414 -56.307  1.00  0.00     0.052 C 
ENDROOT
BRANCH  10  14
HETATM   14  C13 UNK   900      -1.227 -45.529 -56.178  1.00  0.00     0.066 C 
BRANCH  14  15
HETATM   15  C15 UNK   900      -0.710 -45.146 -54.791  1.00  0.00     0.171 C 
BRANCH  15  16
HETATM   16  O4  UNK   900      -1.351 -45.944 -53.804  1.00  0.00    -0.396 OA
HETATM   17  C16 UNK   900      -2.760 -45.964 -53.983  1.00  0.00     0.201 C 
ENDBRANCH  15  16
ENDBRANCH  14  15
ENDBRANCH  10  14
BRANCH   9  18
HETATM   18  O3  UNK   900       0.969 -49.554 -57.920  1.00  0.00    -0.359 OA
HETATM   19  H19 UNK   900       0.309 -49.969 -57.344  1.00  0.00     0.217 HD
ENDBRANCH   9  18
BRANCH   1  20
HETATM   20  O1  UNK   900       2.218 -46.505 -61.413  1.00  0.00    -0.386 OA
HETATM   21  H9  UNK   900       1.348 -46.222 -61.084  1.00  0.00     0.210 HD
ENDBRANCH   1  20
BRANCH   2  22
HETATM   22  O2  UNK   900       2.588 -48.918 -60.328  1.00  0.00    -0.382 OA
HETATM   23  H10 UNK   900       2.282 -48.551 -61.174  1.00  0.00     0.211 HD
ENDBRANCH   2  22
TORSDOF 6
ENDMDL
