MODEL 1
REMARK VINA RESULT:      -5.0      0.000      0.000
REMARK  6 active torsions:
REMARK  status: ('A' for Active; 'I' for Inactive)
REMARK    1  A    between atoms: O2_2  and  C2_6 
REMARK    2  A    between atoms: O3_3  and  C7_11 
REMARK    3  A    between atoms: C1_5  and  C2_6 
REMARK    4  A    between atoms: C2_6  and  C4_8 
REMARK    5  A    between atoms: C4_8  and  C7_11 
REMARK    6  A    between atoms: C7_11  and  C11_15 
ROOT
HETATM    1  C2  UNK   900       5.384 -66.228 -51.099  1.00  0.00     0.159 C 
ENDROOT
BRANCH   1   2
HETATM    2  O2  UNK   900       5.855 -66.914 -52.261  1.00  0.00    -0.392 OA
HETATM    3  H18 UNK   900       6.826 -66.880 -52.268  1.00  0.00     0.210 HD
ENDBRANCH   1   2
BRANCH   1   4
HETATM    4  C1  UNK   900       6.248 -66.676 -49.922  1.00  0.00     0.094 C 
HETATM    5  O1  UNK   900       7.413 -65.834 -49.856  1.00  0.00    -0.307 OA
HETATM    6  C8  UNK   900       8.515 -66.574 -49.516  1.00  0.00     0.263 C 
HETATM    7  O4  UNK   900       9.628 -66.106 -49.336  1.00  0.00    -0.265 OA
HETATM    8  C5  UNK   900       8.128 -68.024 -49.371  1.00  0.00     0.084 C 
HETATM    9  C3  UNK   900       6.815 -68.072 -50.133  1.00  0.00     0.055 C 
HETATM   10  C10 UNK   900       9.171 -68.968 -49.940  1.00  0.00     0.020 C 
HETATM   11  C6  UNK   900       5.471 -66.544 -48.610  1.00  0.00     0.049 C 
ENDBRANCH   1   4
BRANCH   1  12
HETATM   12  C4  UNK   900       3.868 -66.482 -50.924  1.00  0.00     0.042 C 
HETATM   13  C9  UNK   900       3.448 -67.848 -51.498  1.00  0.00     0.015 C 
BRANCH  12  14
HETATM   14  C7  UNK   900       2.972 -65.361 -51.507  1.00  0.00     0.124 C 
BRANCH  14  15
HETATM   15  O3  UNK   900       3.039 -65.423 -52.935  1.00  0.00    -0.395 OA
HETATM   16  H19 UNK   900       3.763 -66.030 -53.170  1.00  0.00     0.210 HD
ENDBRANCH  14  15
BRANCH  14  17
HETATM   17  C11 UNK   900       1.495 -65.409 -51.087  1.00  0.00     0.027 C 
HETATM   18  C12 UNK   900       1.268 -65.287 -49.585  1.00  0.00     0.007 C 
ENDBRANCH  14  17
ENDBRANCH  12  14
ENDBRANCH   1  12
TORSDOF 6
ENDMDL
MODEL 2
REMARK VINA RESULT:      -4.7      2.735      4.447
REMARK  6 active torsions:
REMARK  status: ('A' for Active; 'I' for Inactive)
REMARK    1  A    between atoms: O2_2  and  C2_6 
REMARK    2  A    between atoms: O3_3  and  C7_11 
REMARK    3  A    between atoms: C1_5  and  C2_6 
REMARK    4  A    between atoms: C2_6  and  C4_8 
REMARK    5  A    between atoms: C4_8  and  C7_11 
REMARK    6  A    between atoms: C7_11  and  C11_15 
ROOT
HETATM    1  C2  UNK   900       7.322 -68.721 -51.311  1.00  0.00     0.159 C 
ENDROOT
BRANCH   1   2
HETATM    2  O2  UNK   900       6.567 -69.396 -52.319  1.00  0.00    -0.392 OA
HETATM    3  H18 UNK   900       6.185 -70.201 -51.931  1.00  0.00     0.210 HD
ENDBRANCH   1   2
BRANCH   1   4
HETATM    4  C1  UNK   900       7.695 -69.753 -50.250  1.00  0.00     0.094 C 
HETATM    5  O1  UNK   900       7.384 -69.216 -48.952  1.00  0.00    -0.307 OA
HETATM    6  C8  UNK   900       8.352 -69.568 -48.048  1.00  0.00     0.263 C 
HETATM    7  O4  UNK   900       8.315 -69.292 -46.859  1.00  0.00    -0.265 OA
HETATM    8  C5  UNK   900       9.429 -70.362 -48.741  1.00  0.00     0.084 C 
HETATM    9  C3  UNK   900       9.196 -69.997 -50.196  1.00  0.00     0.055 C 
HETATM   10  C10 UNK   900      10.823 -70.001 -48.262  1.00  0.00     0.020 C 
HETATM   11  C6  UNK   900       6.892 -71.041 -50.453  1.00  0.00     0.049 C 
ENDBRANCH   1   4
BRANCH   1  12
HETATM   12  C4  UNK   900       6.517 -67.510 -50.782  1.00  0.00     0.042 C 
HETATM   13  C9  UNK   900       5.414 -67.084 -51.771  1.00  0.00     0.015 C 
BRANCH  12  14
HETATM   14  C7  UNK   900       7.392 -66.290 -50.402  1.00  0.00     0.124 C 
BRANCH  14  15
HETATM   15  O3  UNK   900       7.238 -66.039 -49.002  1.00  0.00    -0.395 OA
HETATM   16  H19 UNK   900       6.751 -66.789 -48.620  1.00  0.00     0.210 HD
ENDBRANCH  14  15
BRANCH  14  17
HETATM   17  C11 UNK   900       8.891 -66.430 -50.709  1.00  0.00     0.027 C 
HETATM   18  C12 UNK   900       9.784 -66.429 -49.474  1.00  0.00     0.007 C 
ENDBRANCH  14  17
ENDBRANCH  12  14
ENDBRANCH   1  12
TORSDOF 6
ENDMDL
MODEL 3
REMARK VINA RESULT:      -4.7     10.956     13.513
REMARK  6 active torsions:
REMARK  status: ('A' for Active; 'I' for Inactive)
REMARK    1  A    between atoms: O2_2  and  C2_6 
REMARK    2  A    between atoms: O3_3  and  C7_11 
REMARK    3  A    between atoms: C1_5  and  C2_6 
REMARK    4  A    between atoms: C2_6  and  C4_8 
REMARK    5  A    between atoms: C4_8  and  C7_11 
REMARK    6  A    between atoms: C7_11  and  C11_15 
ROOT
HETATM    1  C2  UNK   900       4.426 -62.384 -61.717  1.00  0.00     0.159 C 
ENDROOT
BRANCH   1   2
HETATM    2  O2  UNK   900       5.064 -61.577 -60.725  1.00  0.00    -0.392 OA
HETATM    3  H18 UNK   900       5.848 -62.051 -60.398  1.00  0.00     0.210 HD
ENDBRANCH   1   2
BRANCH   1   4
HETATM    4  C1  UNK   900       2.922 -62.156 -61.593  1.00  0.00     0.094 C 
HETATM    5  O1  UNK   900       2.430 -61.629 -62.838  1.00  0.00    -0.307 OA
HETATM    6  C8  UNK   900       1.475 -60.674 -62.605  1.00  0.00     0.263 C 
HETATM    7  O4  UNK   900       0.850 -60.099 -63.481  1.00  0.00    -0.265 OA
HETATM    8  C5  UNK   900       1.303 -60.480 -61.120  1.00  0.00     0.084 C 
HETATM    9  C3  UNK   900       2.593 -61.071 -60.579  1.00  0.00     0.055 C 
HETATM   10  C10 UNK   900       1.120 -59.023 -60.737  1.00  0.00     0.020 C 
HETATM   11  C6  UNK   900       2.205 -63.477 -61.302  1.00  0.00     0.049 C 
ENDBRANCH   1   4
BRANCH   1  12
HETATM   12  C4  UNK   900       4.875 -63.857 -61.556  1.00  0.00     0.042 C 
HETATM   13  C9  UNK   900       5.857 -64.028 -60.381  1.00  0.00     0.015 C 
BRANCH  12  14
HETATM   14  C7  UNK   900       5.472 -64.476 -62.844  1.00  0.00     0.124 C 
BRANCH  14  15
HETATM   15  O3  UNK   900       6.647 -63.741 -63.198  1.00  0.00    -0.395 OA
HETATM   16  H19 UNK   900       7.041 -64.173 -63.976  1.00  0.00     0.210 HD
ENDBRANCH  14  15
BRANCH  14  17
HETATM   17  C11 UNK   900       5.838 -65.965 -62.753  1.00  0.00     0.027 C 
HETATM   18  C12 UNK   900       6.906 -66.408 -63.747  1.00  0.00     0.007 C 
ENDBRANCH  14  17
ENDBRANCH  12  14
ENDBRANCH   1  12
TORSDOF 6
ENDMDL
MODEL 4
REMARK VINA RESULT:      -4.6     28.405     30.261
REMARK  6 active torsions:
REMARK  status: ('A' for Active; 'I' for Inactive)
REMARK    1  A    between atoms: O2_2  and  C2_6 
REMARK    2  A    between atoms: O3_3  and  C7_11 
REMARK    3  A    between atoms: C1_5  and  C2_6 
REMARK    4  A    between atoms: C2_6  and  C4_8 
REMARK    5  A    between atoms: C4_8  and  C7_11 
REMARK    6  A    between atoms: C7_11  and  C11_15 
ROOT
HETATM    1  C2  UNK   900       8.104 -48.573 -73.502  1.00  0.00     0.159 C 
ENDROOT
BRANCH   1   2
HETATM    2  O2  UNK   900       8.036 -48.053 -72.172  1.00  0.00    -0.392 OA
HETATM    3  H18 UNK   900       7.131 -48.172 -71.839  1.00  0.00     0.210 HD
ENDBRANCH   1   2
BRANCH   1   4
HETATM    4  C1  UNK   900       6.987 -47.915 -74.307  1.00  0.00     0.094 C 
HETATM    5  O1  UNK   900       7.576 -47.079 -75.320  1.00  0.00    -0.307 OA
HETATM    6  C8  UNK   900       6.853 -45.924 -75.462  1.00  0.00     0.263 C 
HETATM    7  O4  UNK   900       7.097 -45.058 -76.287  1.00  0.00    -0.265 OA
HETATM    8  C5  UNK   900       5.713 -45.914 -74.476  1.00  0.00     0.084 C 
HETATM    9  C3  UNK   900       6.170 -46.948 -73.463  1.00  0.00     0.055 C 
HETATM   10  C10 UNK   900       5.486 -44.546 -73.857  1.00  0.00     0.020 C 
HETATM   11  C6  UNK   900       6.124 -48.978 -74.991  1.00  0.00     0.049 C 
ENDBRANCH   1   4
BRANCH   1  12
HETATM   12  C4  UNK   900       8.048 -50.119 -73.459  1.00  0.00     0.042 C 
HETATM   13  C9  UNK   900       7.285 -50.627 -72.221  1.00  0.00     0.015 C 
BRANCH  12  14
HETATM   14  C7  UNK   900       9.437 -50.800 -73.546  1.00  0.00     0.124 C 
BRANCH  14  15
HETATM   15  O3  UNK   900      10.339 -49.907 -74.205  1.00  0.00    -0.395 OA
HETATM   16  H19 UNK   900       9.810 -49.313 -74.765  1.00  0.00     0.210 HD
ENDBRANCH  14  15
BRANCH  14  17
HETATM   17  C11 UNK   900      10.056 -51.214 -72.203  1.00  0.00     0.027 C 
HETATM   18  C12 UNK   900      10.896 -50.129 -71.541  1.00  0.00     0.007 C 
ENDBRANCH  14  17
ENDBRANCH  12  14
ENDBRANCH   1  12
TORSDOF 6
ENDMDL
MODEL 5
REMARK VINA RESULT:      -4.4     21.200     24.662
REMARK  6 active torsions:
REMARK  status: ('A' for Active; 'I' for Inactive)
REMARK    1  A    between atoms: O2_2  and  C2_6 
REMARK    2  A    between atoms: O3_3  and  C7_11 
REMARK    3  A    between atoms: C1_5  and  C2_6 
REMARK    4  A    between atoms: C2_6  and  C4_8 
REMARK    5  A    between atoms: C4_8  and  C7_11 
REMARK    6  A    between atoms: C7_11  and  C11_15 
ROOT
HETATM    1  C2  UNK   900      24.612 -58.603 -37.928  1.00  0.00     0.159 C 
ENDROOT
BRANCH   1   2
HETATM    2  O2  UNK   900      23.803 -57.968 -36.936  1.00  0.00    -0.392 OA
HETATM    3  H18 UNK   900      22.996 -58.495 -36.812  1.00  0.00     0.210 HD
ENDBRANCH   1   2
BRANCH   1   4
HETATM    4  C1  UNK   900      24.228 -60.080 -37.956  1.00  0.00     0.094 C 
HETATM    5  O1  UNK   900      23.263 -60.288 -39.003  1.00  0.00    -0.307 OA
HETATM    6  C8  UNK   900      22.311 -61.186 -38.600  1.00  0.00     0.263 C 
HETATM    7  O4  UNK   900      21.401 -61.588 -39.308  1.00  0.00    -0.265 OA
HETATM    8  C5  UNK   900      22.585 -61.613 -37.180  1.00  0.00     0.084 C 
HETATM    9  C3  UNK   900      23.494 -60.500 -36.691  1.00  0.00     0.055 C 
HETATM   10  C10 UNK   900      21.319 -61.743 -36.353  1.00  0.00     0.020 C 
HETATM   11  C6  UNK   900      25.457 -60.946 -38.242  1.00  0.00     0.049 C 
ENDBRANCH   1   4
BRANCH   1  12
HETATM   12  C4  UNK   900      26.107 -58.327 -37.634  1.00  0.00     0.042 C 
HETATM   13  C9  UNK   900      26.312 -57.748 -36.221  1.00  0.00     0.015 C 
BRANCH  12  14
HETATM   14  C7  UNK   900      26.798 -57.424 -38.685  1.00  0.00     0.124 C 
BRANCH  14  15
HETATM   15  O3  UNK   900      26.836 -56.086 -38.180  1.00  0.00    -0.395 OA
HETATM   16  H19 UNK   900      27.485 -55.590 -38.708  1.00  0.00     0.210 HD
ENDBRANCH  14  15
BRANCH  14  17
HETATM   17  C11 UNK   900      28.225 -57.837 -39.076  1.00  0.00     0.027 C 
HETATM   18  C12 UNK   900      29.255 -56.721 -38.951  1.00  0.00     0.007 C 
ENDBRANCH  14  17
ENDBRANCH  12  14
ENDBRANCH   1  12
TORSDOF 6
ENDMDL
MODEL 6
REMARK VINA RESULT:      -4.3     24.512     26.392
REMARK  6 active torsions:
REMARK  status: ('A' for Active; 'I' for Inactive)
REMARK    1  A    between atoms: O2_2  and  C2_6 
REMARK    2  A    between atoms: O3_3  and  C7_11 
REMARK    3  A    between atoms: C1_5  and  C2_6 
REMARK    4  A    between atoms: C2_6  and  C4_8 
REMARK    5  A    between atoms: C4_8  and  C7_11 
REMARK    6  A    between atoms: C7_11  and  C11_15 
ROOT
HETATM    1  C2  UNK   900       3.963 -44.434 -63.430  1.00  0.00     0.159 C 
ENDROOT
BRANCH   1   2
HETATM    2  O2  UNK   900       4.652 -45.172 -64.441  1.00  0.00    -0.392 OA
HETATM    3  H18 UNK   900       4.041 -45.327 -65.181  1.00  0.00     0.210 HD
ENDBRANCH   1   2
BRANCH   1   4
HETATM    4  C1  UNK   900       4.049 -42.957 -63.803  1.00  0.00     0.094 C 
HETATM    5  O1  UNK   900       4.788 -42.832 -65.032  1.00  0.00    -0.307 OA
HETATM    6  C8  UNK   900       5.601 -41.730 -64.988  1.00  0.00     0.263 C 
HETATM    7  O4  UNK   900       6.299 -41.353 -65.915  1.00  0.00    -0.265 OA
HETATM    8  C5  UNK   900       5.467 -41.054 -63.647  1.00  0.00     0.084 C 
HETATM    9  C3  UNK   900       4.872 -42.164 -62.798  1.00  0.00     0.055 C 
HETATM   10  C10 UNK   900       6.796 -40.553 -63.109  1.00  0.00     0.020 C 
HETATM   11  C6  UNK   900       2.648 -42.376 -64.011  1.00  0.00     0.049 C 
ENDBRANCH   1   4
BRANCH   1  12
HETATM   12  C4  UNK   900       4.546 -44.788 -62.041  1.00  0.00     0.042 C 
HETATM   13  C9  UNK   900       5.844 -45.609 -62.159  1.00  0.00     0.015 C 
BRANCH  12  14
HETATM   14  C7  UNK   900       3.544 -45.506 -61.103  1.00  0.00     0.124 C 
BRANCH  14  15
HETATM   15  O3  UNK   900       2.559 -46.160 -61.908  1.00  0.00    -0.395 OA
HETATM   16  H19 UNK   900       2.243 -45.519 -62.568  1.00  0.00     0.210 HD
ENDBRANCH  14  15
BRANCH  14  17
HETATM   17  C11 UNK   900       4.157 -46.542 -60.148  1.00  0.00     0.027 C 
HETATM   18  C12 UNK   900       3.135 -47.312 -59.321  1.00  0.00     0.007 C 
ENDBRANCH  14  17
ENDBRANCH  12  14
ENDBRANCH   1  12
TORSDOF 6
ENDMDL
MODEL 7
REMARK VINA RESULT:      -4.2     37.457     38.881
REMARK  6 active torsions:
REMARK  status: ('A' for Active; 'I' for Inactive)
REMARK    1  A    between atoms: O2_2  and  C2_6 
REMARK    2  A    between atoms: O3_3  and  C7_11 
REMARK    3  A    between atoms: C1_5  and  C2_6 
REMARK    4  A    between atoms: C2_6  and  C4_8 
REMARK    5  A    between atoms: C4_8  and  C7_11 
REMARK    6  A    between atoms: C7_11  and  C11_15 
ROOT
HETATM    1  C2  UNK   900      19.830 -31.453 -48.404  1.00  0.00     0.159 C 
ENDROOT
BRANCH   1   2
HETATM    2  O2  UNK   900      18.714 -31.436 -47.511  1.00  0.00    -0.392 OA
HETATM    3  H18 UNK   900      18.564 -30.521 -47.222  1.00  0.00     0.210 HD
ENDBRANCH   1   2
BRANCH   1   4
HETATM    4  C1  UNK   900      20.816 -32.497 -47.885  1.00  0.00     0.094 C 
HETATM    5  O1  UNK   900      21.821 -31.833 -47.097  1.00  0.00    -0.307 OA
HETATM    6  C8  UNK   900      23.049 -32.397 -47.322  1.00  0.00     0.263 C 
HETATM    7  O4  UNK   900      24.073 -32.066 -46.745  1.00  0.00    -0.265 OA
HETATM    8  C5  UNK   900      22.924 -33.492 -48.351  1.00  0.00     0.084 C 
HETATM    9  C3  UNK   900      21.603 -33.145 -49.014  1.00  0.00     0.055 C 
HETATM   10  C10 UNK   900      24.085 -33.510 -49.329  1.00  0.00     0.020 C 
HETATM   11  C6  UNK   900      20.095 -33.519 -47.002  1.00  0.00     0.049 C 
ENDBRANCH   1   4
BRANCH   1  12
HETATM   12  C4  UNK   900      20.410 -30.024 -48.538  1.00  0.00     0.042 C 
HETATM   13  C9  UNK   900      19.436 -28.961 -47.995  1.00  0.00     0.015 C 
BRANCH  12  14
HETATM   14  C7  UNK   900      20.851 -29.657 -49.976  1.00  0.00     0.124 C 
BRANCH  14  15
HETATM   15  O3  UNK   900      20.430 -28.318 -50.252  1.00  0.00    -0.395 OA
HETATM   16  H19 UNK   900      19.883 -28.341 -51.056  1.00  0.00     0.210 HD
ENDBRANCH  14  15
BRANCH  14  17
HETATM   17  C11 UNK   900      22.359 -29.759 -50.252  1.00  0.00     0.027 C 
HETATM   18  C12 UNK   900      23.237 -29.220 -49.129  1.00  0.00     0.007 C 
ENDBRANCH  14  17
ENDBRANCH  12  14
ENDBRANCH   1  12
TORSDOF 6
ENDMDL
MODEL 8
REMARK VINA RESULT:      -4.2     15.150     16.291
REMARK  6 active torsions:
REMARK  status: ('A' for Active; 'I' for Inactive)
REMARK    1  A    between atoms: O2_2  and  C2_6 
REMARK    2  A    between atoms: O3_3  and  C7_11 
REMARK    3  A    between atoms: C1_5  and  C2_6 
REMARK    4  A    between atoms: C2_6  and  C4_8 
REMARK    5  A    between atoms: C4_8  and  C7_11 
REMARK    6  A    between atoms: C7_11  and  C11_15 
ROOT
HETATM    1  C2  UNK   900      13.624 -66.808 -64.063  1.00  0.00     0.159 C 
ENDROOT
BRANCH   1   2
HETATM    2  O2  UNK   900      14.840 -66.214 -63.604  1.00  0.00    -0.392 OA
HETATM    3  H18 UNK   900      15.020 -66.535 -62.705  1.00  0.00     0.210 HD
ENDBRANCH   1   2
BRANCH   1   4
HETATM    4  C1  UNK   900      13.398 -68.077 -63.246  1.00  0.00     0.094 C 
HETATM    5  O1  UNK   900      14.598 -68.375 -62.511  1.00  0.00    -0.307 OA
HETATM    6  C8  UNK   900      14.820 -69.726 -62.490  1.00  0.00     0.263 C 
HETATM    7  O4  UNK   900      15.738 -70.263 -61.891  1.00  0.00    -0.265 OA
HETATM    8  C5  UNK   900      13.747 -70.429 -63.283  1.00  0.00     0.084 C 
HETATM    9  C3  UNK   900      13.199 -69.297 -64.134  1.00  0.00     0.055 C 
HETATM   10  C10 UNK   900      14.291 -71.577 -64.114  1.00  0.00     0.020 C 
HETATM   11  C6  UNK   900      12.251 -67.874 -62.253  1.00  0.00     0.049 C 
ENDBRANCH   1   4
BRANCH   1  12
HETATM   12  C4  UNK   900      13.698 -67.026 -65.594  1.00  0.00     0.042 C 
HETATM   13  C9  UNK   900      15.087 -66.665 -66.154  1.00  0.00     0.015 C 
BRANCH  12  14
HETATM   14  C7  UNK   900      12.594 -66.287 -66.389  1.00  0.00     0.124 C 
BRANCH  14  15
HETATM   15  O3  UNK   900      11.416 -66.227 -65.579  1.00  0.00    -0.395 OA
HETATM   16  H19 UNK   900      10.668 -66.012 -66.162  1.00  0.00     0.210 HD
ENDBRANCH  14  15
BRANCH  14  17
HETATM   17  C11 UNK   900      12.946 -64.862 -66.841  1.00  0.00     0.027 C 
HETATM   18  C12 UNK   900      12.123 -63.771 -66.168  1.00  0.00     0.007 C 
ENDBRANCH  14  17
ENDBRANCH  12  14
ENDBRANCH   1  12
TORSDOF 6
ENDMDL
MODEL 9
REMARK VINA RESULT:      -4.1     36.198     38.487
REMARK  6 active torsions:
REMARK  status: ('A' for Active; 'I' for Inactive)
REMARK    1  A    between atoms: O2_2  and  C2_6 
REMARK    2  A    between atoms: O3_3  and  C7_11 
REMARK    3  A    between atoms: C1_5  and  C2_6 
REMARK    4  A    between atoms: C2_6  and  C4_8 
REMARK    5  A    between atoms: C4_8  and  C7_11 
REMARK    6  A    between atoms: C7_11  and  C11_15 
ROOT
HETATM    1  C2  UNK   900      27.753 -36.716 -42.233  1.00  0.00     0.159 C 
ENDROOT
BRANCH   1   2
HETATM    2  O2  UNK   900      26.389 -36.426 -42.548  1.00  0.00    -0.392 OA
HETATM    3  H18 UNK   900      26.152 -36.902 -43.361  1.00  0.00     0.210 HD
ENDBRANCH   1   2
BRANCH   1   4
HETATM    4  C1  UNK   900      27.760 -37.553 -40.957  1.00  0.00     0.094 C 
HETATM    5  O1  UNK   900      27.735 -38.946 -41.316  1.00  0.00    -0.307 OA
HETATM    6  C8  UNK   900      26.934 -39.645 -40.452  1.00  0.00     0.263 C 
HETATM    7  O4  UNK   900      26.773 -40.855 -40.489  1.00  0.00    -0.265 OA
HETATM    8  C5  UNK   900      26.323 -38.700 -39.448  1.00  0.00     0.084 C 
HETATM    9  C3  UNK   900      26.488 -37.360 -40.144  1.00  0.00     0.055 C 
HETATM   10  C10 UNK   900      24.873 -39.027 -39.142  1.00  0.00     0.020 C 
HETATM   11  C6  UNK   900      29.028 -37.278 -40.145  1.00  0.00     0.049 C 
ENDBRANCH   1   4
BRANCH   1  12
HETATM   12  C4  UNK   900      28.559 -35.398 -42.149  1.00  0.00     0.042 C 
HETATM   13  C9  UNK   900      27.644 -34.188 -41.880  1.00  0.00     0.015 C 
BRANCH  12  14
HETATM   14  C7  UNK   900      29.451 -35.126 -43.385  1.00  0.00     0.124 C 
BRANCH  14  15
HETATM   15  O3  UNK   900      28.764 -35.590 -44.551  1.00  0.00    -0.395 OA
HETATM   16  H19 UNK   900      29.328 -36.257 -44.980  1.00  0.00     0.210 HD
ENDBRANCH  14  15
BRANCH  14  17
HETATM   17  C11 UNK   900      29.848 -33.659 -43.606  1.00  0.00     0.027 C 
HETATM   18  C12 UNK   900      31.333 -33.446 -43.871  1.00  0.00     0.007 C 
ENDBRANCH  14  17
ENDBRANCH  12  14
ENDBRANCH   1  12
TORSDOF 6
ENDMDL
