MODEL 1
REMARK VINA RESULT:      -7.9      0.000      0.000
REMARK  4 active torsions:
REMARK  status: ('A' for Active; 'I' for Inactive)
REMARK    1  A    between atoms: O2_2  and  C6_11 
REMARK    2  A    between atoms: O3_3  and  C10_15 
REMARK    3  A    between atoms: O4_4  and  C12_17 
REMARK    4  A    between atoms: C3_8  and  C4_9 
ROOT
HETATM    1  O1  UNK   900      33.477 -50.063 -58.679  1.00  0.00    -0.274 OA
HETATM    2  O5  UNK   900      32.918 -48.153 -57.592  1.00  0.00    -0.259 OA
HETATM    3  C1  UNK   900      32.914 -48.859 -61.136  1.00  0.00    -0.012 A 
HETATM    4  C2  UNK   900      32.751 -48.136 -59.951  1.00  0.00     0.084 A 
HETATM    5  C3  UNK   900      33.633 -50.785 -59.886  1.00  0.00     0.093 A 
HETATM    6  C5  UNK   900      33.377 -50.238 -61.083  1.00  0.00     0.051 A 
HETATM    7  C6  UNK   900      32.306 -46.809 -59.992  1.00  0.00     0.091 A 
HETATM    8  C7  UNK   900      32.024 -46.207 -61.217  1.00  0.00     0.005 A 
HETATM    9  C8  UNK   900      32.628 -48.248 -62.362  1.00  0.00     0.049 A 
HETATM   10  C10 UNK   900      32.184 -46.926 -62.401  1.00  0.00     0.075 A 
HETATM   11  C11 UNK   900      33.049 -48.765 -58.645  1.00  0.00     0.302 A 
HETATM   12  C13 UNK   900      31.546 -44.790 -61.269  1.00  0.00     0.054 C 
ENDROOT
BRANCH   5  13
HETATM   13  C4  UNK   900      34.114 -52.168 -59.712  1.00  0.00     0.037 A 
HETATM   14  C9  UNK   900      35.403 -52.519 -60.113  1.00  0.00    -0.046 A 
HETATM   15  C14 UNK   900      35.854 -53.829 -59.945  1.00  0.00     0.008 A 
HETATM   16  C15 UNK   900      36.332 -51.522 -60.729  1.00  0.00     0.049 C 
HETATM   17  C17 UNK   900      35.015 -54.787 -59.375  1.00  0.00     0.003 A 
HETATM   18  C16 UNK   900      33.726 -54.436 -58.974  1.00  0.00     0.037 A 
HETATM   19  C12 UNK   900      33.275 -53.127 -59.142  1.00  0.00     0.079 A 
BRANCH  19  20
HETATM   20  O4  UNK   900      32.010 -52.813 -58.740  1.00  0.00    -0.360 OA
HETATM   21  H14 UNK   900      32.055 -52.116 -58.063  1.00  0.00     0.217 HD
ENDBRANCH  19  20
ENDBRANCH   5  13
BRANCH   7  22
HETATM   22  O2  UNK   900      32.135 -46.069 -58.857  1.00  0.00    -0.359 OA
HETATM   23  H12 UNK   900      32.009 -45.132 -59.065  1.00  0.00     0.217 HD
ENDBRANCH   7  22
BRANCH  10  24
HETATM   24  O3  UNK   900      31.914 -46.352 -63.608  1.00  0.00    -0.360 OA
HETATM   25  H13 UNK   900      32.729 -45.958 -63.963  1.00  0.00     0.217 HD
ENDBRANCH  10  24
TORSDOF 4
ENDMDL
MODEL 2
REMARK VINA RESULT:      -7.4     13.376     16.301
REMARK  4 active torsions:
REMARK  status: ('A' for Active; 'I' for Inactive)
REMARK    1  A    between atoms: O2_2  and  C6_11 
REMARK    2  A    between atoms: O3_3  and  C10_15 
REMARK    3  A    between atoms: O4_4  and  C12_17 
REMARK    4  A    between atoms: C3_8  and  C4_9 
ROOT
HETATM    1  O1  UNK   900      35.551 -35.387 -59.205  1.00  0.00    -0.274 OA
HETATM    2  O5  UNK   900      36.938 -34.967 -60.950  1.00  0.00    -0.259 OA
HETATM    3  C1  UNK   900      35.234 -32.646 -58.767  1.00  0.00    -0.012 A 
HETATM    4  C2  UNK   900      36.055 -33.096 -59.805  1.00  0.00     0.084 A 
HETATM    5  C3  UNK   900      34.727 -34.916 -58.155  1.00  0.00     0.093 A 
HETATM    6  C5  UNK   900      34.548 -33.610 -57.919  1.00  0.00     0.051 A 
HETATM    7  C6  UNK   900      36.719 -32.177 -60.626  1.00  0.00     0.091 A 
HETATM    8  C7  UNK   900      36.561 -30.809 -60.408  1.00  0.00     0.005 A 
HETATM    9  C8  UNK   900      35.081 -31.271 -58.555  1.00  0.00     0.049 A 
HETATM   10  C10 UNK   900      35.744 -30.356 -59.374  1.00  0.00     0.075 A 
HETATM   11  C11 UNK   900      36.227 -34.547 -60.045  1.00  0.00     0.302 A 
HETATM   12  C13 UNK   900      37.270 -29.821 -61.280  1.00  0.00     0.054 C 
ENDROOT
BRANCH   5  13
HETATM   13  C4  UNK   900      34.077 -35.981 -57.367  1.00  0.00     0.037 A 
HETATM   14  C9  UNK   900      34.753 -36.582 -56.305  1.00  0.00    -0.046 A 
HETATM   15  C14 UNK   900      34.133 -37.587 -55.563  1.00  0.00     0.008 A 
HETATM   16  C15 UNK   900      36.144 -36.179 -55.933  1.00  0.00     0.049 C 
HETATM   17  C17 UNK   900      32.835 -37.990 -55.882  1.00  0.00     0.003 A 
HETATM   18  C16 UNK   900      32.159 -37.389 -56.943  1.00  0.00     0.037 A 
HETATM   19  C12 UNK   900      32.779 -36.384 -57.686  1.00  0.00     0.079 A 
BRANCH  19  20
HETATM   20  O4  UNK   900      32.093 -35.814 -58.718  1.00  0.00    -0.360 OA
HETATM   21  H14 UNK   900      31.911 -34.883 -58.504  1.00  0.00     0.217 HD
ENDBRANCH  19  20
ENDBRANCH   5  13
BRANCH   7  22
HETATM   22  O2  UNK   900      37.529 -32.577 -61.650  1.00  0.00    -0.359 OA
HETATM   23  H12 UNK   900      37.024 -32.708 -62.466  1.00  0.00     0.217 HD
ENDBRANCH   7  22
BRANCH  10  24
HETATM   24  O3  UNK   900      35.579 -29.022 -59.148  1.00  0.00    -0.360 OA
HETATM   25  H13 UNK   900      35.237 -28.602 -59.956  1.00  0.00     0.217 HD
ENDBRANCH  10  24
TORSDOF 4
ENDMDL
MODEL 3
REMARK VINA RESULT:      -7.3      5.435      8.135
REMARK  4 active torsions:
REMARK  status: ('A' for Active; 'I' for Inactive)
REMARK    1  A    between atoms: O2_2  and  C6_11 
REMARK    2  A    between atoms: O3_3  and  C10_15 
REMARK    3  A    between atoms: O4_4  and  C12_17 
REMARK    4  A    between atoms: C3_8  and  C4_9 
ROOT
HETATM    1  O1  UNK   900      31.125 -44.167 -65.293  1.00  0.00    -0.274 OA
HETATM    2  O5  UNK   900      31.992 -42.198 -64.578  1.00  0.00    -0.259 OA
HETATM    3  C1  UNK   900      32.659 -45.553 -63.415  1.00  0.00    -0.012 A 
HETATM    4  C2  UNK   900      32.747 -44.160 -63.496  1.00  0.00     0.084 A 
HETATM    5  C3  UNK   900      31.050 -45.578 -65.202  1.00  0.00     0.093 A 
HETATM    6  C5  UNK   900      31.767 -46.275 -64.310  1.00  0.00     0.051 A 
HETATM    7  C6  UNK   900      33.603 -43.457 -62.639  1.00  0.00     0.091 A 
HETATM    8  C7  UNK   900      34.369 -44.148 -61.702  1.00  0.00     0.005 A 
HETATM    9  C8  UNK   900      33.432 -46.238 -62.470  1.00  0.00     0.049 A 
HETATM   10  C10 UNK   900      34.285 -45.536 -61.617  1.00  0.00     0.075 A 
HETATM   11  C11 UNK   900      31.936 -43.418 -64.488  1.00  0.00     0.302 A 
HETATM   12  C13 UNK   900      35.287 -43.403 -60.784  1.00  0.00     0.054 C 
ENDROOT
BRANCH   5  13
HETATM   13  C4  UNK   900      30.109 -46.202 -66.151  1.00  0.00     0.037 A 
HETATM   14  C9  UNK   900      30.546 -46.602 -67.414  1.00  0.00    -0.046 A 
HETATM   15  C14 UNK   900      29.652 -47.192 -68.307  1.00  0.00     0.008 A 
HETATM   16  C15 UNK   900      31.965 -46.414 -67.848  1.00  0.00     0.049 C 
HETATM   17  C17 UNK   900      28.320 -47.382 -67.937  1.00  0.00     0.003 A 
HETATM   18  C16 UNK   900      27.883 -46.982 -66.675  1.00  0.00     0.037 A 
HETATM   19  C12 UNK   900      28.776 -46.392 -65.781  1.00  0.00     0.079 A 
BRANCH  19  20
HETATM   20  O4  UNK   900      28.320 -46.012 -64.553  1.00  0.00    -0.360 OA
HETATM   21  H14 UNK   900      27.414 -45.671 -64.641  1.00  0.00     0.217 HD
ENDBRANCH  19  20
ENDBRANCH   5  13
BRANCH   7  22
HETATM   22  O2  UNK   900      33.716 -42.097 -62.688  1.00  0.00    -0.359 OA
HETATM   23  H12 UNK   900      32.967 -41.700 -63.157  1.00  0.00     0.217 HD
ENDBRANCH   7  22
BRANCH  10  24
HETATM   24  O3  UNK   900      35.027 -46.226 -60.705  1.00  0.00    -0.360 OA
HETATM   25  H13 UNK   900      34.912 -47.180 -60.857  1.00  0.00     0.217 HD
ENDBRANCH  10  24
TORSDOF 4
ENDMDL
MODEL 4
REMARK VINA RESULT:      -7.2      3.263      8.212
REMARK  4 active torsions:
REMARK  status: ('A' for Active; 'I' for Inactive)
REMARK    1  A    between atoms: O2_2  and  C6_11 
REMARK    2  A    between atoms: O3_3  and  C10_15 
REMARK    3  A    between atoms: O4_4  and  C12_17 
REMARK    4  A    between atoms: C3_8  and  C4_9 
ROOT
HETATM    1  O1  UNK   900      32.466 -46.864 -64.504  1.00  0.00    -0.274 OA
HETATM    2  O5  UNK   900      33.444 -48.894 -64.253  1.00  0.00    -0.259 OA
HETATM    3  C1  UNK   900      31.022 -47.240 -62.143  1.00  0.00    -0.012 A 
HETATM    4  C2  UNK   900      31.897 -48.234 -62.591  1.00  0.00     0.084 A 
HETATM    5  C3  UNK   900      31.571 -45.869 -64.041  1.00  0.00     0.093 A 
HETATM    6  C5  UNK   900      30.866 -46.014 -62.911  1.00  0.00     0.051 A 
HETATM    7  C6  UNK   900      32.053 -49.417 -61.859  1.00  0.00     0.091 A 
HETATM    8  C7  UNK   900      31.333 -49.606 -60.681  1.00  0.00     0.005 A 
HETATM    9  C8  UNK   900      30.303 -47.439 -60.959  1.00  0.00     0.049 A 
HETATM   10  C10 UNK   900      30.458 -48.619 -60.231  1.00  0.00     0.075 A 
HETATM   11  C11 UNK   900      32.668 -48.041 -63.840  1.00  0.00     0.302 A 
HETATM   12  C13 UNK   900      31.493 -50.869 -59.894  1.00  0.00     0.054 C 
ENDROOT
BRANCH   5  13
HETATM   13  C4  UNK   900      31.501 -44.667 -64.894  1.00  0.00     0.037 A 
HETATM   14  C9  UNK   900      30.656 -44.641 -66.003  1.00  0.00    -0.046 A 
HETATM   15  C14 UNK   900      30.592 -43.501 -66.805  1.00  0.00     0.008 A 
HETATM   16  C15 UNK   900      29.803 -45.814 -66.367  1.00  0.00     0.049 C 
HETATM   17  C17 UNK   900      31.375 -42.387 -66.497  1.00  0.00     0.003 A 
HETATM   18  C16 UNK   900      32.220 -42.414 -65.388  1.00  0.00     0.037 A 
HETATM   19  C12 UNK   900      32.283 -43.553 -64.585  1.00  0.00     0.079 A 
BRANCH  19  20
HETATM   20  O4  UNK   900      33.118 -43.550 -63.507  1.00  0.00    -0.360 OA
HETATM   21  H14 UNK   900      34.033 -43.426 -63.812  1.00  0.00     0.217 HD
ENDBRANCH  19  20
ENDBRANCH   5  13
BRANCH   7  22
HETATM   22  O2  UNK   900      32.899 -50.410 -62.263  1.00  0.00    -0.359 OA
HETATM   23  H12 UNK   900      33.347 -50.817 -61.507  1.00  0.00     0.217 HD
ENDBRANCH   7  22
BRANCH  10  24
HETATM   24  O3  UNK   900      29.747 -48.788 -59.080  1.00  0.00    -0.360 OA
HETATM   25  H13 UNK   900      29.063 -48.099 -59.024  1.00  0.00     0.217 HD
ENDBRANCH  10  24
TORSDOF 4
ENDMDL
MODEL 5
REMARK VINA RESULT:      -6.8     31.169     32.614
REMARK  4 active torsions:
REMARK  status: ('A' for Active; 'I' for Inactive)
REMARK    1  A    between atoms: O2_2  and  C6_11 
REMARK    2  A    between atoms: O3_3  and  C10_15 
REMARK    3  A    between atoms: O4_4  and  C12_17 
REMARK    4  A    between atoms: C3_8  and  C4_9 
ROOT
HETATM    1  O1  UNK   900      25.525 -20.566 -71.993  1.00  0.00    -0.274 OA
HETATM    2  O5  UNK   900      27.425 -20.801 -73.208  1.00  0.00    -0.259 OA
HETATM    3  C1  UNK   900      24.261 -22.513 -73.546  1.00  0.00    -0.012 A 
HETATM    4  C2  UNK   900      25.586 -22.158 -73.815  1.00  0.00     0.084 A 
HETATM    5  C3  UNK   900      24.182 -20.932 -71.735  1.00  0.00     0.093 A 
HETATM    6  C5  UNK   900      23.546 -21.865 -72.456  1.00  0.00     0.051 A 
HETATM    7  C6  UNK   900      26.282 -22.775 -74.862  1.00  0.00     0.091 A 
HETATM    8  C7  UNK   900      25.651 -23.747 -75.638  1.00  0.00     0.005 A 
HETATM    9  C8  UNK   900      23.636 -23.489 -74.330  1.00  0.00     0.049 A 
HETATM   10  C10 UNK   900      24.330 -24.103 -75.374  1.00  0.00     0.075 A 
HETATM   11  C11 UNK   900      26.264 -21.128 -72.996  1.00  0.00     0.302 A 
HETATM   12  C13 UNK   900      26.388 -24.410 -76.759  1.00  0.00     0.054 C 
ENDROOT
BRANCH   5  13
HETATM   13  C4  UNK   900      23.562 -20.217 -70.603  1.00  0.00     0.037 A 
HETATM   14  C9  UNK   900      22.580 -19.254 -70.834  1.00  0.00    -0.046 A 
HETATM   15  C14 UNK   900      21.996 -18.582 -69.760  1.00  0.00     0.008 A 
HETATM   16  C15 UNK   900      22.128 -18.911 -72.218  1.00  0.00     0.049 C 
HETATM   17  C17 UNK   900      22.393 -18.875 -68.455  1.00  0.00     0.003 A 
HETATM   18  C16 UNK   900      23.375 -19.838 -68.224  1.00  0.00     0.037 A 
HETATM   19  C12 UNK   900      23.959 -20.510 -69.298  1.00  0.00     0.079 A 
BRANCH  19  20
HETATM   20  O4  UNK   900      24.916 -21.448 -69.042  1.00  0.00    -0.360 OA
HETATM   21  H14 UNK   900      24.549 -22.333 -69.209  1.00  0.00     0.217 HD
ENDBRANCH  19  20
ENDBRANCH   5  13
BRANCH   7  22
HETATM   22  O2  UNK   900      27.576 -22.456 -75.156  1.00  0.00    -0.359 OA
HETATM   23  H12 UNK   900      28.194 -22.951 -74.597  1.00  0.00     0.217 HD
ENDBRANCH   7  22
BRANCH  10  24
HETATM   24  O3  UNK   900      23.700 -25.052 -76.122  1.00  0.00    -0.360 OA
HETATM   25  H13 UNK   900      22.755 -25.065 -75.891  1.00  0.00     0.217 HD
ENDBRANCH  10  24
TORSDOF 4
ENDMDL
MODEL 6
REMARK VINA RESULT:      -6.6     23.206     25.765
REMARK  4 active torsions:
REMARK  status: ('A' for Active; 'I' for Inactive)
REMARK    1  A    between atoms: O2_2  and  C6_11 
REMARK    2  A    between atoms: O3_3  and  C10_15 
REMARK    3  A    between atoms: O4_4  and  C12_17 
REMARK    4  A    between atoms: C3_8  and  C4_9 
ROOT
HETATM    1  O1  UNK   900      25.614 -61.214 -38.497  1.00  0.00    -0.274 OA
HETATM    2  O5  UNK   900      27.726 -61.502 -39.271  1.00  0.00    -0.259 OA
HETATM    3  C1  UNK   900      26.078 -58.478 -38.177  1.00  0.00    -0.012 A 
HETATM    4  C2  UNK   900      27.093 -59.305 -38.666  1.00  0.00     0.084 A 
HETATM    5  C3  UNK   900      24.597 -60.365 -37.998  1.00  0.00     0.093 A 
HETATM    6  C5  UNK   900      24.782 -59.048 -37.836  1.00  0.00     0.051 A 
HETATM    7  C6  UNK   900      28.342 -58.766 -38.996  1.00  0.00     0.091 A 
HETATM    8  C7  UNK   900      28.575 -57.401 -38.837  1.00  0.00     0.005 A 
HETATM    9  C8  UNK   900      26.320 -57.109 -38.020  1.00  0.00     0.049 A 
HETATM   10  C10 UNK   900      27.566 -56.573 -38.348  1.00  0.00     0.075 A 
HETATM   11  C11 UNK   900      26.855 -60.756 -38.841  1.00  0.00     0.302 A 
HETATM   12  C13 UNK   900      29.908 -56.818 -39.186  1.00  0.00     0.054 C 
ENDROOT
BRANCH   5  13
HETATM   13  C4  UNK   900      23.325 -61.049 -37.695  1.00  0.00     0.037 A 
HETATM   14  C9  UNK   900      23.183 -61.777 -36.514  1.00  0.00    -0.046 A 
HETATM   15  C14 UNK   900      21.979 -62.421 -36.231  1.00  0.00     0.008 A 
HETATM   16  C15 UNK   900      24.299 -61.893 -35.525  1.00  0.00     0.049 C 
HETATM   17  C17 UNK   900      20.915 -62.336 -37.131  1.00  0.00     0.003 A 
HETATM   18  C16 UNK   900      21.057 -61.609 -38.312  1.00  0.00     0.037 A 
HETATM   19  C12 UNK   900      22.262 -60.965 -38.595  1.00  0.00     0.079 A 
BRANCH  19  20
HETATM   20  O4  UNK   900      22.371 -60.260 -39.757  1.00  0.00    -0.360 OA
HETATM   21  H14 UNK   900      21.770 -59.496 -39.725  1.00  0.00     0.217 HD
ENDBRANCH  19  20
ENDBRANCH   5  13
BRANCH   7  22
HETATM   22  O2  UNK   900      29.358 -59.541 -39.478  1.00  0.00    -0.359 OA
HETATM   23  H12 UNK   900      30.035 -59.691 -38.801  1.00  0.00     0.217 HD
ENDBRANCH   7  22
BRANCH  10  24
HETATM   24  O3  UNK   900      27.777 -55.236 -38.187  1.00  0.00    -0.360 OA
HETATM   25  H13 UNK   900      28.731 -55.056 -38.238  1.00  0.00     0.217 HD
ENDBRANCH  10  24
TORSDOF 4
ENDMDL
MODEL 7
REMARK VINA RESULT:      -6.4      3.207      8.186
REMARK  4 active torsions:
REMARK  status: ('A' for Active; 'I' for Inactive)
REMARK    1  A    between atoms: O2_2  and  C6_11 
REMARK    2  A    between atoms: O3_3  and  C10_15 
REMARK    3  A    between atoms: O4_4  and  C12_17 
REMARK    4  A    between atoms: C3_8  and  C4_9 
ROOT
HETATM    1  O1  UNK   900      31.881 -44.335 -62.316  1.00  0.00    -0.274 OA
HETATM    2  O5  UNK   900      31.631 -44.736 -60.098  1.00  0.00    -0.259 OA
HETATM    3  C1  UNK   900      33.096 -46.827 -62.655  1.00  0.00    -0.012 A 
HETATM    4  C2  UNK   900      32.667 -46.428 -61.387  1.00  0.00     0.084 A 
HETATM    5  C3  UNK   900      32.326 -44.751 -63.594  1.00  0.00     0.093 A 
HETATM    6  C5  UNK   900      32.908 -45.941 -63.794  1.00  0.00     0.051 A 
HETATM    7  C6  UNK   900      32.843 -47.273 -60.284  1.00  0.00     0.091 A 
HETATM    8  C7  UNK   900      33.450 -48.517 -60.452  1.00  0.00     0.005 A 
HETATM    9  C8  UNK   900      33.705 -48.077 -62.815  1.00  0.00     0.049 A 
HETATM   10  C10 UNK   900      33.881 -48.919 -61.715  1.00  0.00     0.075 A 
HETATM   11  C11 UNK   900      32.020 -45.109 -61.198  1.00  0.00     0.302 A 
HETATM   12  C13 UNK   900      33.644 -49.425 -59.279  1.00  0.00     0.054 C 
ENDROOT
BRANCH   5  13
HETATM   13  C4  UNK   900      32.076 -43.777 -64.674  1.00  0.00     0.037 A 
HETATM   14  C9  UNK   900      31.182 -44.080 -65.700  1.00  0.00    -0.046 A 
HETATM   15  C14 UNK   900      30.948 -43.155 -66.718  1.00  0.00     0.008 A 
HETATM   16  C15 UNK   900      30.455 -45.386 -65.747  1.00  0.00     0.049 C 
HETATM   17  C17 UNK   900      31.610 -41.926 -66.708  1.00  0.00     0.003 A 
HETATM   18  C16 UNK   900      32.504 -41.623 -65.682  1.00  0.00     0.037 A 
HETATM   19  C12 UNK   900      32.737 -42.548 -64.664  1.00  0.00     0.079 A 
BRANCH  19  20
HETATM   20  O4  UNK   900      33.617 -42.224 -63.673  1.00  0.00    -0.360 OA
HETATM   21  H14 UNK   900      33.178 -42.328 -62.811  1.00  0.00     0.217 HD
ENDBRANCH  19  20
ENDBRANCH   5  13
BRANCH   7  22
HETATM   22  O2  UNK   900      32.437 -46.919 -59.030  1.00  0.00    -0.359 OA
HETATM   23  H12 UNK   900      32.018 -47.664 -58.574  1.00  0.00     0.217 HD
ENDBRANCH   7  22
BRANCH  10  24
HETATM   24  O3  UNK   900      34.475 -50.132 -61.897  1.00  0.00    -0.360 OA
HETATM   25  H13 UNK   900      35.162 -50.051 -62.580  1.00  0.00     0.217 HD
ENDBRANCH  10  24
TORSDOF 4
ENDMDL
MODEL 8
REMARK VINA RESULT:      -6.4     25.300     26.425
REMARK  4 active torsions:
REMARK  status: ('A' for Active; 'I' for Inactive)
REMARK    1  A    between atoms: O2_2  and  C6_11 
REMARK    2  A    between atoms: O3_3  and  C10_15 
REMARK    3  A    between atoms: O4_4  and  C12_17 
REMARK    4  A    between atoms: C3_8  and  C4_9 
ROOT
HETATM    1  O1  UNK   900      13.183 -61.717 -70.200  1.00  0.00    -0.274 OA
HETATM    2  O5  UNK   900      14.310 -60.887 -71.984  1.00  0.00    -0.259 OA
HETATM    3  C1  UNK   900      10.985 -60.103 -70.806  1.00  0.00    -0.012 A 
HETATM    4  C2  UNK   900      12.129 -60.054 -71.608  1.00  0.00     0.084 A 
HETATM    5  C3  UNK   900      12.020 -61.751 -69.393  1.00  0.00     0.093 A 
HETATM    6  C5  UNK   900      10.946 -60.995 -69.657  1.00  0.00     0.051 A 
HETATM    7  C6  UNK   900      12.176 -59.199 -72.716  1.00  0.00     0.091 A 
HETATM    8  C7  UNK   900      11.080 -58.393 -73.019  1.00  0.00     0.005 A 
HETATM    9  C8  UNK   900       9.889 -59.290 -71.118  1.00  0.00     0.049 A 
HETATM   10  C10 UNK   900       9.938 -58.437 -72.221  1.00  0.00     0.075 A 
HETATM   11  C11 UNK   900      13.297 -60.908 -71.295  1.00  0.00     0.302 A 
HETATM   12  C13 UNK   900      11.124 -57.474 -74.200  1.00  0.00     0.054 C 
ENDROOT
BRANCH   5  13
HETATM   13  C4  UNK   900      12.089 -62.697 -68.263  1.00  0.00     0.037 A 
HETATM   14  C9  UNK   900      11.348 -63.878 -68.288  1.00  0.00    -0.046 A 
HETATM   15  C14 UNK   900      11.418 -64.769 -67.217  1.00  0.00     0.008 A 
HETATM   16  C15 UNK   900      10.463 -64.224 -69.443  1.00  0.00     0.049 C 
HETATM   17  C17 UNK   900      12.232 -64.479 -66.121  1.00  0.00     0.003 A 
HETATM   18  C16 UNK   900      12.973 -63.298 -66.096  1.00  0.00     0.037 A 
HETATM   19  C12 UNK   900      12.903 -62.407 -67.166  1.00  0.00     0.079 A 
BRANCH  19  20
HETATM   20  O4  UNK   900      13.641 -61.261 -67.114  1.00  0.00    -0.360 OA
HETATM   21  H14 UNK   900      14.294 -61.269 -67.835  1.00  0.00     0.217 HD
ENDBRANCH  19  20
ENDBRANCH   5  13
BRANCH   7  22
HETATM   22  O2  UNK   900      13.274 -59.123 -73.523  1.00  0.00    -0.359 OA
HETATM   23  H12 UNK   900      13.149 -58.467 -74.224  1.00  0.00     0.217 HD
ENDBRANCH   7  22
BRANCH  10  24
HETATM   24  O3  UNK   900       8.857 -57.656 -72.505  1.00  0.00    -0.360 OA
HETATM   25  H13 UNK   900       8.851 -57.454 -73.456  1.00  0.00     0.217 HD
ENDBRANCH  10  24
TORSDOF 4
ENDMDL
MODEL 9
REMARK VINA RESULT:      -6.1     14.457     17.683
REMARK  4 active torsions:
REMARK  status: ('A' for Active; 'I' for Inactive)
REMARK    1  A    between atoms: O2_2  and  C6_11 
REMARK    2  A    between atoms: O3_3  and  C10_15 
REMARK    3  A    between atoms: O4_4  and  C12_17 
REMARK    4  A    between atoms: C3_8  and  C4_9 
ROOT
HETATM    1  O1  UNK   900      35.229 -32.124 -58.628  1.00  0.00    -0.274 OA
HETATM    2  O5  UNK   900      35.042 -29.886 -58.937  1.00  0.00    -0.259 OA
HETATM    3  C1  UNK   900      37.126 -32.274 -60.673  1.00  0.00    -0.012 A 
HETATM    4  C2  UNK   900      36.558 -31.041 -60.337  1.00  0.00     0.084 A 
HETATM    5  C3  UNK   900      35.808 -33.366 -58.983  1.00  0.00     0.093 A 
HETATM    6  C5  UNK   900      36.725 -33.474 -59.954  1.00  0.00     0.051 A 
HETATM    7  C6  UNK   900      36.937 -29.881 -61.023  1.00  0.00     0.091 A 
HETATM    8  C7  UNK   900      37.884 -29.954 -62.043  1.00  0.00     0.005 A 
HETATM    9  C8  UNK   900      38.075 -32.338 -61.699  1.00  0.00     0.049 A 
HETATM   10  C10 UNK   900      38.452 -31.181 -62.382  1.00  0.00     0.075 A 
HETATM   11  C11 UNK   900      35.553 -30.953 -59.254  1.00  0.00     0.302 A 
HETATM   12  C13 UNK   900      38.293 -28.719 -62.782  1.00  0.00     0.054 C 
ENDROOT
BRANCH   5  13
HETATM   13  C4  UNK   900      35.334 -34.511 -58.183  1.00  0.00     0.037 A 
HETATM   14  C9  UNK   900      36.180 -35.122 -57.259  1.00  0.00    -0.046 A 
HETATM   15  C14 UNK   900      35.726 -36.204 -56.505  1.00  0.00     0.008 A 
HETATM   16  C15 UNK   900      37.583 -34.648 -57.047  1.00  0.00     0.049 C 
HETATM   17  C17 UNK   900      34.423 -36.675 -56.675  1.00  0.00     0.003 A 
HETATM   18  C16 UNK   900      33.577 -36.064 -57.600  1.00  0.00     0.037 A 
HETATM   19  C12 UNK   900      34.031 -34.982 -58.354  1.00  0.00     0.079 A 
BRANCH  19  20
HETATM   20  O4  UNK   900      33.180 -34.405 -59.251  1.00  0.00    -0.360 OA
HETATM   21  H14 UNK   900      33.579 -34.441 -60.137  1.00  0.00     0.217 HD
ENDBRANCH  19  20
ENDBRANCH   5  13
BRANCH   7  22
HETATM   22  O2  UNK   900      36.406 -28.659 -60.724  1.00  0.00    -0.359 OA
HETATM   23  H12 UNK   900      36.108 -28.623 -59.803  1.00  0.00     0.217 HD
ENDBRANCH   7  22
BRANCH  10  24
HETATM   24  O3  UNK   900      39.380 -31.270 -63.377  1.00  0.00    -0.360 OA
HETATM   25  H13 UNK   900      39.754 -30.388 -63.543  1.00  0.00     0.217 HD
ENDBRANCH  10  24
TORSDOF 4
ENDMDL
