MODEL 1
REMARK VINA RESULT:      -6.4      0.000      0.000
REMARK  2 active torsions:
REMARK  status: ('A' for Active; 'I' for Inactive)
REMARK    1  A    between atoms: O2_2  and  C5_9 
REMARK    2  A    between atoms: O4_4  and  C10_14 
ROOT
HETATM    1  O1  UNK   900      33.151 -51.518 -59.290  1.00  0.00    -0.357 OA
HETATM    2  O3  UNK   900      34.481 -48.391 -62.099  1.00  0.00    -0.297 OA
HETATM    3  C1  UNK   900      30.913 -48.552 -62.311  1.00  0.00     0.011 C 
HETATM    4  C2  UNK   900      32.166 -48.539 -61.393  1.00  0.00     0.073 C 
HETATM    5  C3  UNK   900      30.600 -47.148 -62.938  1.00  0.00    -0.017 C 
HETATM    6  C4  UNK   900      32.494 -49.980 -60.962  1.00  0.00     0.083 C 
HETATM    7  C5  UNK   900      31.868 -46.630 -63.682  1.00  0.00     0.133 C 
HETATM    8  C6  UNK   900      29.703 -49.189 -61.574  1.00  0.00     0.033 C 
HETATM    9  C7  UNK   900      33.349 -47.907 -62.122  1.00  0.00     0.134 C 
HETATM   10  C8  UNK   900      31.305 -50.750 -60.494  1.00  0.00    -0.050 C 
HETATM   11  C9  UNK   900      33.105 -46.574 -62.791  1.00  0.00     0.111 C 
HETATM   12  C10 UNK   900      33.404 -50.174 -59.748  1.00  0.00     0.266 C 
HETATM   13  C11 UNK   900      30.042 -50.395 -60.746  1.00  0.00    -0.021 C 
HETATM   14  C12 UNK   900      29.432 -47.271 -63.945  1.00  0.00     0.018 C 
HETATM   15  C13 UNK   900      30.180 -46.104 -61.877  1.00  0.00     0.018 C 
HETATM   16  C14 UNK   900      31.773 -51.827 -59.581  1.00  0.00     0.205 C 
ENDROOT
BRANCH   7  17
HETATM   17  O2  UNK   900      32.192 -47.462 -64.799  1.00  0.00    -0.394 OA
HETATM   18  H19 UNK   900      32.904 -48.064 -64.523  1.00  0.00     0.210 HD
ENDBRANCH   7  17
BRANCH  12  19
HETATM   19  O4  UNK   900      33.193 -49.228 -58.706  1.00  0.00    -0.371 OA
HETATM   20  H20 UNK   900      34.051 -48.816 -58.515  1.00  0.00     0.212 HD
ENDBRANCH  12  19
TORSDOF 2
ENDMDL
MODEL 2
REMARK VINA RESULT:      -5.7     10.759     11.594
REMARK  2 active torsions:
REMARK  status: ('A' for Active; 'I' for Inactive)
REMARK    1  A    between atoms: O2_2  and  C5_9 
REMARK    2  A    between atoms: O4_4  and  C10_14 
ROOT
HETATM    1  O1  UNK   900      36.959 -41.835 -55.373  1.00  0.00    -0.357 OA
HETATM    2  O3  UNK   900      37.093 -39.334 -59.001  1.00  0.00    -0.297 OA
HETATM    3  C1  UNK   900      34.280 -38.250 -57.074  1.00  0.00     0.011 C 
HETATM    4  C2  UNK   900      35.773 -38.680 -57.075  1.00  0.00     0.073 C 
HETATM    5  C3  UNK   900      34.056 -36.818 -57.676  1.00  0.00    -0.017 C 
HETATM    6  C4  UNK   900      35.878 -40.149 -56.629  1.00  0.00     0.083 C 
HETATM    7  C5  UNK   900      34.681 -36.763 -59.102  1.00  0.00     0.133 C 
HETATM    8  C6  UNK   900      33.659 -38.436 -55.663  1.00  0.00     0.033 C 
HETATM    9  C7  UNK   900      36.377 -38.488 -58.465  1.00  0.00     0.134 C 
HETATM   10  C8  UNK   900      35.070 -40.465 -55.415  1.00  0.00    -0.050 C 
HETATM   11  C9  UNK   900      36.158 -37.146 -59.124  1.00  0.00     0.111 C 
HETATM   12  C10 UNK   900      37.241 -40.658 -56.156  1.00  0.00     0.266 C 
HETATM   13  C11 UNK   900      34.081 -39.693 -54.957  1.00  0.00    -0.021 C 
HETATM   14  C12 UNK   900      32.541 -36.520 -57.773  1.00  0.00     0.018 C 
HETATM   15  C13 UNK   900      34.686 -35.703 -56.809  1.00  0.00     0.018 C 
HETATM   16  C14 UNK   900      35.676 -41.646 -54.743  1.00  0.00     0.205 C 
ENDROOT
BRANCH   7  17
HETATM   17  O2  UNK   900      34.005 -37.645 -60.002  1.00  0.00    -0.394 OA
HETATM   18  H19 UNK   900      33.049 -37.519 -59.878  1.00  0.00     0.210 HD
ENDBRANCH   7  17
BRANCH  12  19
HETATM   19  O4  UNK   900      37.986 -39.707 -55.404  1.00  0.00    -0.371 OA
HETATM   20  H20 UNK   900      38.627 -40.204 -54.869  1.00  0.00     0.212 HD
ENDBRANCH  12  19
TORSDOF 2
ENDMDL
MODEL 3
REMARK VINA RESULT:      -5.3     32.012     33.992
REMARK  2 active torsions:
REMARK  status: ('A' for Active; 'I' for Inactive)
REMARK    1  A    between atoms: O2_2  and  C5_9 
REMARK    2  A    between atoms: O4_4  and  C10_14 
ROOT
HETATM    1  O1  UNK   900       7.564 -66.682 -52.186  1.00  0.00    -0.357 OA
HETATM    2  O3  UNK   900       9.855 -69.867 -50.176  1.00  0.00    -0.297 OA
HETATM    3  C1  UNK   900       7.712 -68.396 -47.718  1.00  0.00     0.011 C 
HETATM    4  C2  UNK   900       7.858 -68.934 -49.168  1.00  0.00     0.073 C 
HETATM    5  C3  UNK   900       7.684 -69.540 -46.643  1.00  0.00    -0.017 C 
HETATM    6  C4  UNK   900       8.047 -67.748 -50.132  1.00  0.00     0.083 C 
HETATM    7  C5  UNK   900       8.950 -70.431 -46.815  1.00  0.00     0.133 C 
HETATM    8  C6  UNK   900       6.513 -67.415 -47.616  1.00  0.00     0.033 C 
HETATM    9  C7  UNK   900       9.036 -69.901 -49.258  1.00  0.00     0.134 C 
HETATM   10  C8  UNK   900       7.083 -66.632 -49.903  1.00  0.00    -0.050 C 
HETATM   11  C9  UNK   900       9.096 -71.000 -48.222  1.00  0.00     0.111 C 
HETATM   12  C10 UNK   900       7.793 -67.988 -51.621  1.00  0.00     0.266 C 
HETATM   13  C11 UNK   900       6.371 -66.480 -48.783  1.00  0.00    -0.021 C 
HETATM   14  C12 UNK   900       7.682 -68.925 -45.223  1.00  0.00     0.018 C 
HETATM   15  C13 UNK   900       6.425 -70.431 -46.757  1.00  0.00     0.018 C 
HETATM   16  C14 UNK   900       6.939 -65.869 -51.172  1.00  0.00     0.205 C 
ENDROOT
BRANCH   7  17
HETATM   17  O2  UNK   900      10.145 -69.697 -46.533  1.00  0.00    -0.394 OA
HETATM   18  H19 UNK   900      10.363 -69.170 -47.321  1.00  0.00     0.210 HD
ENDBRANCH   7  17
BRANCH  12  19
HETATM   19  O4  UNK   900       6.704 -68.864 -51.891  1.00  0.00    -0.371 OA
HETATM   20  H20 UNK   900       6.724 -69.562 -51.215  1.00  0.00     0.212 HD
ENDBRANCH  12  19
TORSDOF 2
ENDMDL
MODEL 4
REMARK VINA RESULT:      -5.3     15.737     17.864
REMARK  2 active torsions:
REMARK  status: ('A' for Active; 'I' for Inactive)
REMARK    1  A    between atoms: O2_2  and  C5_9 
REMARK    2  A    between atoms: O4_4  and  C10_14 
ROOT
HETATM    1  O1  UNK   900      38.311 -29.017 -58.359  1.00  0.00    -0.357 OA
HETATM    2  O3  UNK   900      34.393 -30.966 -58.887  1.00  0.00    -0.297 OA
HETATM    3  C1  UNK   900      36.863 -33.554 -58.853  1.00  0.00     0.011 C 
HETATM    4  C2  UNK   900      36.344 -32.237 -58.213  1.00  0.00     0.073 C 
HETATM    5  C3  UNK   900      35.970 -34.797 -58.504  1.00  0.00    -0.017 C 
HETATM    6  C4  UNK   900      37.174 -31.054 -58.742  1.00  0.00     0.083 C 
HETATM    7  C5  UNK   900      34.495 -34.491 -58.903  1.00  0.00     0.133 C 
HETATM    8  C6  UNK   900      38.369 -33.759 -58.535  1.00  0.00     0.033 C 
HETATM    9  C7  UNK   900      34.861 -32.045 -58.526  1.00  0.00     0.134 C 
HETATM   10  C8  UNK   900      38.646 -31.298 -58.720  1.00  0.00    -0.050 C 
HETATM   11  C9  UNK   900      33.950 -33.221 -58.258  1.00  0.00     0.111 C 
HETATM   12  C10 UNK   900      37.132 -29.742 -57.957  1.00  0.00     0.266 C 
HETATM   13  C11 UNK   900      39.198 -32.510 -58.608  1.00  0.00    -0.021 C 
HETATM   14  C12 UNK   900      36.464 -36.035 -59.288  1.00  0.00     0.018 C 
HETATM   15  C13 UNK   900      36.018 -35.159 -57.001  1.00  0.00     0.018 C 
HETATM   16  C14 UNK   900      39.339 -29.983 -58.660  1.00  0.00     0.205 C 
ENDROOT
BRANCH   7  17
HETATM   17  O2  UNK   900      34.360 -34.333 -60.318  1.00  0.00    -0.394 OA
HETATM   18  H19 UNK   900      33.417 -34.199 -60.513  1.00  0.00     0.210 HD
ENDBRANCH   7  17
BRANCH  12  19
HETATM   19  O4  UNK   900      37.090 -29.912 -56.545  1.00  0.00    -0.371 OA
HETATM   20  H20 UNK   900      37.836 -30.486 -56.303  1.00  0.00     0.212 HD
ENDBRANCH  12  19
TORSDOF 2
ENDMDL
MODEL 5
REMARK VINA RESULT:      -5.0     23.792     26.031
REMARK  2 active torsions:
REMARK  status: ('A' for Active; 'I' for Inactive)
REMARK    1  A    between atoms: O2_2  and  C5_9 
REMARK    2  A    between atoms: O4_4  and  C10_14 
ROOT
HETATM    1  O1  UNK   900      18.072 -66.287 -66.091  1.00  0.00    -0.357 OA
HETATM    2  O3  UNK   900      17.670 -70.036 -63.807  1.00  0.00    -0.297 OA
HETATM    3  C1  UNK   900      14.630 -68.201 -63.368  1.00  0.00     0.011 C 
HETATM    4  C2  UNK   900      15.731 -68.686 -64.351  1.00  0.00     0.073 C 
HETATM    5  C3  UNK   900      13.663 -69.353 -62.916  1.00  0.00    -0.017 C 
HETATM    6  C4  UNK   900      16.725 -67.539 -64.604  1.00  0.00     0.083 C 
HETATM    7  C5  UNK   900      14.507 -70.521 -62.324  1.00  0.00     0.133 C 
HETATM    8  C6  UNK   900      13.894 -66.959 -63.941  1.00  0.00     0.033 C 
HETATM    9  C7  UNK   900      16.445 -69.910 -63.783  1.00  0.00     0.134 C 
HETATM   10  C8  UNK   900      16.069 -66.231 -64.894  1.00  0.00    -0.050 C 
HETATM   11  C9  UNK   900      15.572 -71.039 -63.285  1.00  0.00     0.111 C 
HETATM   12  C10 UNK   900      17.632 -67.635 -65.832  1.00  0.00     0.266 C 
HETATM   13  C11 UNK   900      14.789 -65.962 -64.618  1.00  0.00    -0.021 C 
HETATM   14  C12 UNK   900      12.689 -68.828 -61.835  1.00  0.00     0.018 C 
HETATM   15  C13 UNK   900      12.803 -69.896 -64.081  1.00  0.00     0.018 C 
HETATM   16  C14 UNK   900      17.015 -65.395 -65.681  1.00  0.00     0.205 C 
ENDROOT
BRANCH   7  17
HETATM   17  O2  UNK   900      15.180 -70.123 -61.127  1.00  0.00    -0.394 OA
HETATM   18  H19 UNK   900      15.890 -69.507 -61.377  1.00  0.00     0.210 HD
ENDBRANCH   7  17
BRANCH  12  19
HETATM   19  O4  UNK   900      17.001 -68.198 -66.977  1.00  0.00    -0.371 OA
HETATM   20  H20 UNK   900      17.694 -68.349 -67.641  1.00  0.00     0.212 HD
ENDBRANCH  12  19
TORSDOF 2
ENDMDL
MODEL 6
REMARK VINA RESULT:      -5.0     39.883     41.353
REMARK  2 active torsions:
REMARK  status: ('A' for Active; 'I' for Inactive)
REMARK    1  A    between atoms: O2_2  and  C5_9 
REMARK    2  A    between atoms: O4_4  and  C10_14 
ROOT
HETATM    1  O1  UNK   900       7.785 -42.145 -93.740  1.00  0.00    -0.357 OA
HETATM    2  O3  UNK   900       8.467 -46.433 -94.505  1.00  0.00    -0.297 OA
HETATM    3  C1  UNK   900      10.076 -44.622 -97.137  1.00  0.00     0.011 C 
HETATM    4  C2  UNK   900       9.796 -44.735 -95.613  1.00  0.00     0.073 C 
HETATM    5  C3  UNK   900      11.085 -45.707 -97.656  1.00  0.00    -0.017 C 
HETATM    6  C4  UNK   900       8.677 -43.750 -95.229  1.00  0.00     0.083 C 
HETATM    7  C5  UNK   900      10.560 -47.120 -97.258  1.00  0.00     0.133 C 
HETATM    8  C6  UNK   900      10.477 -43.169 -97.513  1.00  0.00     0.033 C 
HETATM    9  C7  UNK   900       9.408 -46.167 -95.252  1.00  0.00     0.134 C 
HETATM   10  C8  UNK   900       8.863 -42.383 -95.796  1.00  0.00    -0.050 C 
HETATM   11  C9  UNK   900      10.312 -47.267 -95.761  1.00  0.00     0.111 C 
HETATM   12  C10 UNK   900       8.523 -43.383 -93.752  1.00  0.00     0.266 C 
HETATM   13  C11 UNK   900       9.685 -42.103 -96.812  1.00  0.00    -0.021 C 
HETATM   14  C12 UNK   900      11.203 -45.622 -99.196  1.00  0.00     0.018 C 
HETATM   15  C13 UNK   900      12.507 -45.520 -97.078  1.00  0.00     0.018 C 
HETATM   16  C14 UNK   900       8.137 -41.414 -94.932  1.00  0.00     0.205 C 
ENDROOT
BRANCH   7  17
HETATM   17  O2  UNK   900       9.330 -47.423 -97.920  1.00  0.00    -0.394 OA
HETATM   18  H19 UNK   900       8.931 -48.188 -97.469  1.00  0.00     0.210 HD
ENDBRANCH   7  17
BRANCH  12  19
HETATM   19  O4  UNK   900       9.757 -43.254 -93.054  1.00  0.00    -0.371 OA
HETATM   20  H20 UNK   900      10.149 -42.406 -93.321  1.00  0.00     0.212 HD
ENDBRANCH  12  19
TORSDOF 2
ENDMDL
MODEL 7
REMARK VINA RESULT:      -4.9     33.442     35.286
REMARK  2 active torsions:
REMARK  status: ('A' for Active; 'I' for Inactive)
REMARK    1  A    between atoms: O2_2  and  C5_9 
REMARK    2  A    between atoms: O4_4  and  C10_14 
ROOT
HETATM    1  O1  UNK   900      24.528 -43.114 -96.840  1.00  0.00    -0.357 OA
HETATM    2  O3  UNK   900      28.096 -41.770 -94.628  1.00  0.00    -0.297 OA
HETATM    3  C1  UNK   900      26.112 -38.868 -95.293  1.00  0.00     0.011 C 
HETATM    4  C2  UNK   900      26.141 -40.352 -94.832  1.00  0.00     0.073 C 
HETATM    5  C3  UNK   900      26.678 -37.881 -94.212  1.00  0.00    -0.017 C 
HETATM    6  C4  UNK   900      25.731 -41.256 -96.008  1.00  0.00     0.083 C 
HETATM    7  C5  UNK   900      28.109 -38.341 -93.803  1.00  0.00     0.133 C 
HETATM    8  C6  UNK   900      24.699 -38.484 -95.809  1.00  0.00     0.033 C 
HETATM    9  C7  UNK   900      27.532 -40.720 -94.322  1.00  0.00     0.134 C 
HETATM   10  C8  UNK   900      24.515 -40.782 -96.732  1.00  0.00    -0.050 C 
HETATM   11  C9  UNK   900      28.157 -39.785 -93.312  1.00  0.00     0.111 C 
HETATM   12  C10 UNK   900      25.285 -42.685 -95.691  1.00  0.00     0.266 C 
HETATM   13  C11 UNK   900      24.028 -39.542 -96.637  1.00  0.00    -0.021 C 
HETATM   14  C12 UNK   900      26.749 -36.449 -94.794  1.00  0.00     0.018 C 
HETATM   15  C13 UNK   900      25.791 -37.816 -92.946  1.00  0.00     0.018 C 
HETATM   16  C14 UNK   900      23.879 -41.952 -97.396  1.00  0.00     0.205 C 
ENDROOT
BRANCH   7  17
HETATM   17  O2  UNK   900      29.022 -38.240 -94.899  1.00  0.00    -0.394 OA
HETATM   18  H19 UNK   900      28.657 -37.597 -95.530  1.00  0.00     0.210 HD
ENDBRANCH   7  17
BRANCH  12  19
HETATM   19  O4  UNK   900      24.520 -42.803 -94.497  1.00  0.00    -0.371 OA
HETATM   20  H20 UNK   900      25.122 -43.112 -93.800  1.00  0.00     0.212 HD
ENDBRANCH  12  19
TORSDOF 2
ENDMDL
MODEL 8
REMARK VINA RESULT:      -4.8     33.134     35.603
REMARK  2 active torsions:
REMARK  status: ('A' for Active; 'I' for Inactive)
REMARK    1  A    between atoms: O2_2  and  C5_9 
REMARK    2  A    between atoms: O4_4  and  C10_14 
ROOT
HETATM    1  O1  UNK   900      24.081 -38.435 -96.985  1.00  0.00    -0.357 OA
HETATM    2  O3  UNK   900      25.074 -42.588 -98.080  1.00  0.00    -0.297 OA
HETATM    3  C1  UNK   900      26.235 -42.071 -94.735  1.00  0.00     0.011 C 
HETATM    4  C2  UNK   900      25.092 -41.863 -95.766  1.00  0.00     0.073 C 
HETATM    5  C3  UNK   900      26.348 -43.556 -94.239  1.00  0.00    -0.017 C 
HETATM    6  C4  UNK   900      25.163 -40.429 -96.320  1.00  0.00     0.083 C 
HETATM    7  C5  UNK   900      26.493 -44.495 -95.474  1.00  0.00     0.133 C 
HETATM    8  C6  UNK   900      26.126 -41.036 -93.583  1.00  0.00     0.033 C 
HETATM    9  C7  UNK   900      25.203 -42.888 -96.893  1.00  0.00     0.134 C 
HETATM   10  C8  UNK   900      25.339 -39.388 -95.266  1.00  0.00    -0.050 C 
HETATM   11  C9  UNK   900      25.362 -44.335 -96.485  1.00  0.00     0.111 C 
HETATM   12  C10 UNK   900      23.921 -39.867 -97.014  1.00  0.00     0.266 C 
HETATM   13  C11 UNK   900      25.753 -39.650 -94.023  1.00  0.00    -0.021 C 
HETATM   14  C12 UNK   900      27.591 -43.713 -93.331  1.00  0.00     0.018 C 
HETATM   15  C13 UNK   900      25.119 -44.001 -93.413  1.00  0.00     0.018 C 
HETATM   16  C14 UNK   900      24.809 -38.099 -95.786  1.00  0.00     0.205 C 
ENDROOT
BRANCH   7  17
HETATM   17  O2  UNK   900      27.717 -44.251 -96.172  1.00  0.00    -0.394 OA
HETATM   18  H19 UNK   900      28.148 -45.110 -96.324  1.00  0.00     0.210 HD
ENDBRANCH   7  17
BRANCH  12  19
HETATM   19  O4  UNK   900      22.693 -40.259 -96.413  1.00  0.00    -0.371 OA
HETATM   20  H20 UNK   900      22.158 -40.685 -97.104  1.00  0.00     0.212 HD
ENDBRANCH  12  19
TORSDOF 2
ENDMDL
MODEL 9
REMARK VINA RESULT:      -4.5     39.090     40.509
REMARK  2 active torsions:
REMARK  status: ('A' for Active; 'I' for Inactive)
REMARK    1  A    between atoms: O2_2  and  C5_9 
REMARK    2  A    between atoms: O4_4  and  C10_14 
ROOT
HETATM    1  O1  UNK   900      -0.377 -55.956 -85.702  1.00  0.00    -0.357 OA
HETATM    2  O3  UNK   900       1.319 -53.699 -89.087  1.00  0.00    -0.297 OA
HETATM    3  C1  UNK   900       3.589 -56.366 -88.354  1.00  0.00     0.011 C 
HETATM    4  C2  UNK   900       2.111 -55.925 -88.543  1.00  0.00     0.073 C 
HETATM    5  C3  UNK   900       4.380 -56.448 -89.707  1.00  0.00    -0.017 C 
HETATM    6  C4  UNK   900       1.466 -55.708 -87.163  1.00  0.00     0.083 C 
HETATM    7  C5  UNK   900       4.265 -55.082 -90.448  1.00  0.00     0.133 C 
HETATM    8  C6  UNK   900       3.667 -57.665 -87.507  1.00  0.00     0.033 C 
HETATM    9  C7  UNK   900       2.043 -54.651 -89.382  1.00  0.00     0.134 C 
HETATM   10  C8  UNK   900       1.738 -56.811 -86.195  1.00  0.00    -0.050 C 
HETATM   11  C9  UNK   900       2.822 -54.644 -90.677  1.00  0.00     0.111 C 
HETATM   12  C10 UNK   900      -0.061 -55.684 -87.082  1.00  0.00     0.266 C 
HETATM   13  C11 UNK   900       2.714 -57.711 -86.347  1.00  0.00    -0.021 C 
HETATM   14  C12 UNK   900       5.871 -56.752 -89.427  1.00  0.00     0.018 C 
HETATM   15  C13 UNK   900       3.853 -57.567 -90.636  1.00  0.00     0.018 C 
HETATM   16  C14 UNK   900       0.650 -56.826 -85.181  1.00  0.00     0.205 C 
ENDROOT
BRANCH   7  17
HETATM   17  O2  UNK   900       4.908 -54.037 -89.714  1.00  0.00    -0.394 OA
HETATM   18  H19 UNK   900       4.535 -53.190 -90.014  1.00  0.00     0.210 HD
ENDBRANCH   7  17
BRANCH  12  19
HETATM   19  O4  UNK   900      -0.703 -56.612 -87.949  1.00  0.00    -0.371 OA
HETATM   20  H20 UNK   900      -1.656 -56.425 -87.915  1.00  0.00     0.212 HD
ENDBRANCH  12  19
TORSDOF 2
ENDMDL
