MODEL 1
REMARK VINA RESULT:      -7.4      0.000      0.000
REMARK  4 active torsions:
REMARK  status: ('A' for Active; 'I' for Inactive)
REMARK    1  A    between atoms: O2_2  and  C1_7 
REMARK    2  A    between atoms: O3_3  and  C2_8 
REMARK    3  A    between atoms: O4_4  and  C8_14 
REMARK    4  A    between atoms: O6_6  and  C10_16 
ROOT
HETATM    1  O1  UNK   900      23.573 -40.724 -70.811  1.00  0.00    -0.277 OA
HETATM    2  O5  UNK   900      23.637 -39.288 -72.556  1.00  0.00    -0.259 OA
HETATM    3  C1  UNK   900      23.337 -40.916 -69.395  1.00  0.00     0.199 C 
HETATM    4  C2  UNK   900      24.333 -40.063 -68.601  1.00  0.00     0.214 C 
HETATM    5  C3  UNK   900      24.216 -38.631 -69.055  1.00  0.00    -0.003 A 
HETATM    6  C4  UNK   900      23.881 -38.368 -70.391  1.00  0.00     0.082 A 
HETATM    7  C5  UNK   900      23.519 -42.408 -69.113  1.00  0.00     0.082 C 
HETATM    8  C6  UNK   900      24.477 -37.552 -68.197  1.00  0.00     0.048 A 
HETATM    9  C7  UNK   900      23.676 -39.481 -71.348  1.00  0.00     0.299 C 
HETATM   10  C8  UNK   900      23.782 -37.050 -70.853  1.00  0.00     0.091 A 
HETATM   11  C9  UNK   900      24.022 -35.989 -69.982  1.00  0.00     0.005 A 
HETATM   12  C10 UNK   900      24.374 -36.239 -68.658  1.00  0.00     0.074 A 
HETATM   13  C11 UNK   900      23.911 -34.577 -70.466  1.00  0.00     0.054 C 
ENDROOT
BRANCH   3  14
HETATM   14  O2  UNK   900      22.000 -40.545 -69.045  1.00  0.00    -0.357 OA
HETATM   15  C12 UNK   900      21.066 -41.510 -69.499  1.00  0.00     0.205 C 
ENDBRANCH   3  14
BRANCH   4  16
HETATM   16  O3  UNK   900      24.087 -40.183 -67.204  1.00  0.00    -0.385 OA
HETATM   17  H6  UNK   900      23.815 -41.100 -67.030  1.00  0.00     0.210 HD
ENDBRANCH   4  16
BRANCH  10  18
HETATM   18  O4  UNK   900      23.438 -36.762 -72.142  1.00  0.00    -0.359 OA
HETATM   19  H13 UNK   900      22.736 -37.356 -72.448  1.00  0.00     0.217 HD
ENDBRANCH  10  18
BRANCH  12  20
HETATM   20  O6  UNK   900      24.624 -35.213 -67.796  1.00  0.00    -0.360 OA
HETATM   21  H14 UNK   900      23.870 -35.115 -67.190  1.00  0.00     0.217 HD
ENDBRANCH  12  20
TORSDOF 4
ENDMDL
MODEL 2
REMARK VINA RESULT:      -7.1      2.509      3.645
REMARK  4 active torsions:
REMARK  status: ('A' for Active; 'I' for Inactive)
REMARK    1  A    between atoms: O2_2  and  C1_7 
REMARK    2  A    between atoms: O3_3  and  C2_8 
REMARK    3  A    between atoms: O4_4  and  C8_14 
REMARK    4  A    between atoms: O6_6  and  C10_16 
ROOT
HETATM    1  O1  UNK   900      20.984 -37.701 -70.199  1.00  0.00    -0.277 OA
HETATM    2  O5  UNK   900      19.762 -36.058 -69.240  1.00  0.00    -0.259 OA
HETATM    3  C1  UNK   900      22.274 -38.346 -70.329  1.00  0.00     0.199 C 
HETATM    4  C2  UNK   900      23.289 -37.333 -70.873  1.00  0.00     0.214 C 
HETATM    5  C3  UNK   900      23.295 -36.123 -69.974  1.00  0.00    -0.003 A 
HETATM    6  C4  UNK   900      22.104 -35.744 -69.339  1.00  0.00     0.082 A 
HETATM    7  C5  UNK   900      22.086 -39.526 -71.284  1.00  0.00     0.082 C 
HETATM    8  C6  UNK   900      24.441 -35.335 -69.792  1.00  0.00     0.048 A 
HETATM    9  C7  UNK   900      20.853 -36.504 -69.570  1.00  0.00     0.299 C 
HETATM   10  C8  UNK   900      22.067 -34.615 -68.512  1.00  0.00     0.091 A 
HETATM   11  C9  UNK   900      23.221 -33.855 -68.323  1.00  0.00     0.005 A 
HETATM   12  C10 UNK   900      24.404 -34.212 -68.965  1.00  0.00     0.074 A 
HETATM   13  C11 UNK   900      23.193 -32.650 -67.436  1.00  0.00     0.054 C 
ENDROOT
BRANCH   3  14
HETATM   14  O2  UNK   900      22.724 -38.848 -69.067  1.00  0.00    -0.357 OA
HETATM   15  C12 UNK   900      21.959 -39.970 -68.661  1.00  0.00     0.205 C 
ENDBRANCH   3  14
BRANCH   4  16
HETATM   16  O3  UNK   900      24.582 -37.921 -70.955  1.00  0.00    -0.385 OA
HETATM   17  H6  UNK   900      25.006 -37.827 -70.085  1.00  0.00     0.210 HD
ENDBRANCH   4  16
BRANCH  10  18
HETATM   18  O4  UNK   900      20.930 -34.232 -67.864  1.00  0.00    -0.359 OA
HETATM   19  H13 UNK   900      20.878 -34.652 -66.991  1.00  0.00     0.217 HD
ENDBRANCH  10  18
BRANCH  12  20
HETATM   20  O6  UNK   900      25.538 -33.473 -68.801  1.00  0.00    -0.360 OA
HETATM   21  H14 UNK   900      25.376 -32.567 -69.114  1.00  0.00     0.217 HD
ENDBRANCH  12  20
TORSDOF 4
ENDMDL
MODEL 3
REMARK VINA RESULT:      -6.3      2.405      3.398
REMARK  4 active torsions:
REMARK  status: ('A' for Active; 'I' for Inactive)
REMARK    1  A    between atoms: O2_2  and  C1_7 
REMARK    2  A    between atoms: O3_3  and  C2_8 
REMARK    3  A    between atoms: O4_4  and  C8_14 
REMARK    4  A    between atoms: O6_6  and  C10_16 
ROOT
HETATM    1  O1  UNK   900      21.206 -37.767 -68.576  1.00  0.00    -0.277 OA
HETATM    2  O5  UNK   900      21.734 -35.600 -68.949  1.00  0.00    -0.259 OA
HETATM    3  C1  UNK   900      21.562 -39.018 -67.941  1.00  0.00     0.199 C 
HETATM    4  C2  UNK   900      22.918 -39.487 -68.482  1.00  0.00     0.214 C 
HETATM    5  C3  UNK   900      23.928 -38.386 -68.279  1.00  0.00    -0.003 A 
HETATM    6  C4  UNK   900      23.500 -37.053 -68.344  1.00  0.00     0.082 A 
HETATM    7  C5  UNK   900      20.448 -40.015 -68.268  1.00  0.00     0.082 C 
HETATM    8  C6  UNK   900      25.290 -38.652 -68.076  1.00  0.00     0.048 A 
HETATM    9  C7  UNK   900      22.083 -36.731 -68.637  1.00  0.00     0.299 C 
HETATM   10  C8  UNK   900      24.413 -36.004 -68.180  1.00  0.00     0.091 A 
HETATM   11  C9  UNK   900      25.760 -36.285 -67.956  1.00  0.00     0.005 A 
HETATM   12  C10 UNK   900      26.199 -37.606 -67.908  1.00  0.00     0.074 A 
HETATM   13  C11 UNK   900      26.741 -35.171 -67.772  1.00  0.00     0.054 C 
ENDROOT
BRANCH   3  14
HETATM   14  O2  UNK   900      21.637 -38.868 -66.520  1.00  0.00    -0.357 OA
HETATM   15  C12 UNK   900      20.366 -38.564 -65.970  1.00  0.00     0.205 C 
ENDBRANCH   3  14
BRANCH   4  16
HETATM   16  O3  UNK   900      23.325 -40.686 -67.832  1.00  0.00    -0.385 OA
HETATM   17  H6  UNK   900      23.778 -40.437 -67.009  1.00  0.00     0.210 HD
ENDBRANCH   4  16
BRANCH  10  18
HETATM   18  O4  UNK   900      24.024 -34.697 -68.217  1.00  0.00    -0.359 OA
HETATM   19  H13 UNK   900      23.114 -34.622 -68.546  1.00  0.00     0.217 HD
ENDBRANCH  10  18
BRANCH  12  20
HETATM   20  O6  UNK   900      27.514 -37.898 -67.703  1.00  0.00    -0.360 OA
HETATM   21  H14 UNK   900      28.042 -37.518 -68.425  1.00  0.00     0.217 HD
ENDBRANCH  12  20
TORSDOF 4
ENDMDL
MODEL 4
REMARK VINA RESULT:      -5.6     37.077     40.004
REMARK  4 active torsions:
REMARK  status: ('A' for Active; 'I' for Inactive)
REMARK    1  A    between atoms: O2_2  and  C1_7 
REMARK    2  A    between atoms: O3_3  and  C2_8 
REMARK    3  A    between atoms: O4_4  and  C8_14 
REMARK    4  A    between atoms: O6_6  and  C10_16 
ROOT
HETATM    1  O1  UNK   900       8.776 -71.974 -49.186  1.00  0.00    -0.277 OA
HETATM    2  O5  UNK   900       7.779 -71.511 -51.161  1.00  0.00    -0.259 OA
HETATM    3  C1  UNK   900       9.223 -71.483 -47.899  1.00  0.00     0.199 C 
HETATM    4  C2  UNK   900      10.267 -70.382 -48.118  1.00  0.00     0.214 C 
HETATM    5  C3  UNK   900       9.673 -69.321 -49.008  1.00  0.00    -0.003 A 
HETATM    6  C4  UNK   900       8.746 -69.699 -49.989  1.00  0.00     0.082 A 
HETATM    7  C5  UNK   900       9.812 -72.679 -47.148  1.00  0.00     0.082 C 
HETATM    8  C6  UNK   900      10.054 -67.974 -48.919  1.00  0.00     0.048 A 
HETATM    9  C7  UNK   900       8.378 -71.124 -50.166  1.00  0.00     0.299 C 
HETATM   10  C8  UNK   900       8.187 -68.743 -50.846  1.00  0.00     0.091 A 
HETATM   11  C9  UNK   900       8.559 -67.404 -50.729  1.00  0.00     0.005 A 
HETATM   12  C10 UNK   900       9.494 -67.021 -49.771  1.00  0.00     0.074 A 
HETATM   13  C11 UNK   900       7.962 -66.375 -51.637  1.00  0.00     0.054 C 
ENDROOT
BRANCH   3  14
HETATM   14  O2  UNK   900       8.127 -70.963 -47.141  1.00  0.00    -0.357 OA
HETATM   15  C12 UNK   900       7.542 -71.969 -46.330  1.00  0.00     0.205 C 
ENDBRANCH   3  14
BRANCH   4  16
HETATM   16  O3  UNK   900      10.683 -69.837 -46.871  1.00  0.00    -0.385 OA
HETATM   17  H6  UNK   900       9.957 -69.286 -46.532  1.00  0.00     0.210 HD
ENDBRANCH   4  16
BRANCH  10  18
HETATM   18  O4  UNK   900       7.267 -69.076 -51.796  1.00  0.00    -0.359 OA
HETATM   19  H13 UNK   900       6.392 -68.733 -51.557  1.00  0.00     0.217 HD
ENDBRANCH  10  18
BRANCH  12  20
HETATM   20  O6  UNK   900       9.878 -65.719 -49.652  1.00  0.00    -0.360 OA
HETATM   21  H14 UNK   900      10.760 -65.609 -50.047  1.00  0.00     0.217 HD
ENDBRANCH  12  20
TORSDOF 4
ENDMDL
MODEL 5
REMARK VINA RESULT:      -5.6      2.786      4.779
REMARK  4 active torsions:
REMARK  status: ('A' for Active; 'I' for Inactive)
REMARK    1  A    between atoms: O2_2  and  C1_7 
REMARK    2  A    between atoms: O3_3  and  C2_8 
REMARK    3  A    between atoms: O4_4  and  C8_14 
REMARK    4  A    between atoms: O6_6  and  C10_16 
ROOT
HETATM    1  O1  UNK   900      22.005 -34.876 -68.625  1.00  0.00    -0.277 OA
HETATM    2  O5  UNK   900      23.587 -33.445 -67.877  1.00  0.00    -0.259 OA
HETATM    3  C1  UNK   900      21.531 -36.242 -68.699  1.00  0.00     0.199 C 
HETATM    4  C2  UNK   900      22.582 -37.100 -69.413  1.00  0.00     0.214 C 
HETATM    5  C3  UNK   900      23.900 -36.945 -68.699  1.00  0.00    -0.003 A 
HETATM    6  C4  UNK   900      24.201 -35.719 -68.089  1.00  0.00     0.082 A 
HETATM    7  C5  UNK   900      20.209 -36.212 -69.469  1.00  0.00     0.082 C 
HETATM    8  C6  UNK   900      24.856 -37.971 -68.666  1.00  0.00     0.048 A 
HETATM    9  C7  UNK   900      23.251 -34.585 -68.171  1.00  0.00     0.299 C 
HETATM   10  C8  UNK   900      25.424 -35.533 -67.433  1.00  0.00     0.091 A 
HETATM   11  C9  UNK   900      26.354 -36.570 -67.390  1.00  0.00     0.005 A 
HETATM   12  C10 UNK   900      26.073 -37.786 -68.008  1.00  0.00     0.074 A 
HETATM   13  C11 UNK   900      27.661 -36.382 -66.685  1.00  0.00     0.054 C 
ENDROOT
BRANCH   3  14
HETATM   14  O2  UNK   900      21.286 -36.770 -67.392  1.00  0.00    -0.357 OA
HETATM   15  C12 UNK   900      20.044 -37.452 -67.340  1.00  0.00     0.205 C 
ENDBRANCH   3  14
BRANCH   4  16
HETATM   16  O3  UNK   900      22.171 -38.462 -69.448  1.00  0.00    -0.385 OA
HETATM   17  H6  UNK   900      22.815 -38.952 -69.987  1.00  0.00     0.210 HD
ENDBRANCH   4  16
BRANCH  10  18
HETATM   18  O4  UNK   900      25.738 -34.359 -66.813  1.00  0.00    -0.359 OA
HETATM   19  H13 UNK   900      26.581 -34.013 -67.147  1.00  0.00     0.217 HD
ENDBRANCH  10  18
BRANCH  12  20
HETATM   20  O6  UNK   900      26.976 -38.806 -67.986  1.00  0.00    -0.360 OA
HETATM   21  H14 UNK   900      27.746 -38.539 -67.455  1.00  0.00     0.217 HD
ENDBRANCH  12  20
TORSDOF 4
ENDMDL
MODEL 6
REMARK VINA RESULT:      -5.6     36.114     37.760
REMARK  4 active torsions:
REMARK  status: ('A' for Active; 'I' for Inactive)
REMARK    1  A    between atoms: O2_2  and  C1_7 
REMARK    2  A    between atoms: O3_3  and  C2_8 
REMARK    3  A    between atoms: O4_4  and  C8_14 
REMARK    4  A    between atoms: O6_6  and  C10_16 
ROOT
HETATM    1  O1  UNK   900      24.480 -61.218 -37.721  1.00  0.00    -0.277 OA
HETATM    2  O5  UNK   900      26.497 -61.898 -38.483  1.00  0.00    -0.259 OA
HETATM    3  C1  UNK   900      23.508 -60.149 -37.624  1.00  0.00     0.199 C 
HETATM    4  C2  UNK   900      24.138 -58.963 -36.885  1.00  0.00     0.214 C 
HETATM    5  C3  UNK   900      25.412 -58.574 -37.591  1.00  0.00    -0.003 A 
HETATM    6  C4  UNK   900      26.170 -59.570 -38.222  1.00  0.00     0.082 A 
HETATM    7  C5  UNK   900      22.303 -60.712 -36.867  1.00  0.00     0.082 C 
HETATM    8  C6  UNK   900      25.888 -57.254 -37.596  1.00  0.00     0.048 A 
HETATM    9  C7  UNK   900      25.740 -60.987 -38.170  1.00  0.00     0.299 C 
HETATM   10  C8  UNK   900      27.368 -59.248 -38.871  1.00  0.00     0.091 A 
HETATM   11  C9  UNK   900      27.816 -57.928 -38.886  1.00  0.00     0.005 A 
HETATM   12  C10 UNK   900      27.081 -56.934 -38.246  1.00  0.00     0.074 A 
HETATM   13  C11 UNK   900      29.092 -57.574 -39.583  1.00  0.00     0.054 C 
ENDROOT
BRANCH   3  14
HETATM   14  O2  UNK   900      23.076 -59.732 -38.923  1.00  0.00    -0.357 OA
HETATM   15  C12 UNK   900      21.826 -60.312 -39.257  1.00  0.00     0.205 C 
ENDBRANCH   3  14
BRANCH   4  16
HETATM   16  O3  UNK   900      23.226 -57.872 -36.827  1.00  0.00    -0.385 OA
HETATM   17  H6  UNK   900      22.947 -57.671 -37.737  1.00  0.00     0.210 HD
ENDBRANCH   4  16
BRANCH  10  18
HETATM   18  O4  UNK   900      28.117 -60.191 -39.511  1.00  0.00    -0.359 OA
HETATM   19  H13 UNK   900      27.567 -60.706 -40.122  1.00  0.00     0.217 HD
ENDBRANCH  10  18
BRANCH  12  20
HETATM   20  O6  UNK   900      27.511 -55.641 -38.241  1.00  0.00    -0.360 OA
HETATM   21  H14 UNK   900      27.413 -55.268 -39.134  1.00  0.00     0.217 HD
ENDBRANCH  12  20
TORSDOF 4
ENDMDL
MODEL 7
REMARK VINA RESULT:      -4.9     36.827     39.795
REMARK  4 active torsions:
REMARK  status: ('A' for Active; 'I' for Inactive)
REMARK    1  A    between atoms: O2_2  and  C1_7 
REMARK    2  A    between atoms: O3_3  and  C2_8 
REMARK    3  A    between atoms: O4_4  and  C8_14 
REMARK    4  A    between atoms: O6_6  and  C10_16 
ROOT
HETATM    1  O1  UNK   900       5.850 -70.384 -48.872  1.00  0.00    -0.277 OA
HETATM    2  O5  UNK   900       5.906 -70.383 -51.132  1.00  0.00    -0.259 OA
HETATM    3  C1  UNK   900       6.039 -69.638 -47.646  1.00  0.00     0.199 C 
HETATM    4  C2  UNK   900       7.496 -69.165 -47.566  1.00  0.00     0.214 C 
HETATM    5  C3  UNK   900       7.823 -68.388 -48.815  1.00  0.00    -0.003 A 
HETATM    6  C4  UNK   900       7.202 -68.747 -50.020  1.00  0.00     0.082 A 
HETATM    7  C5  UNK   900       5.687 -70.581 -46.494  1.00  0.00     0.082 C 
HETATM    8  C6  UNK   900       8.764 -67.348 -48.821  1.00  0.00     0.048 A 
HETATM    9  C7  UNK   900       6.262 -69.891 -50.069  1.00  0.00     0.299 C 
HETATM   10  C8  UNK   900       7.495 -68.059 -51.203  1.00  0.00     0.091 A 
HETATM   11  C9  UNK   900       8.416 -67.012 -51.188  1.00  0.00     0.005 A 
HETATM   12  C10 UNK   900       9.053 -66.660 -50.001  1.00  0.00     0.074 A 
HETATM   13  C11 UNK   900       8.730 -66.268 -52.448  1.00  0.00     0.054 C 
ENDROOT
BRANCH   3  14
HETATM   14  O2  UNK   900       5.164 -68.507 -47.594  1.00  0.00    -0.357 OA
HETATM   15  C12 UNK   900       3.854 -68.892 -47.211  1.00  0.00     0.205 C 
ENDBRANCH   3  14
BRANCH   4  16
HETATM   16  O3  UNK   900       7.699 -68.376 -46.399  1.00  0.00    -0.385 OA
HETATM   17  H6  UNK   900       8.243 -68.895 -45.783  1.00  0.00     0.210 HD
ENDBRANCH   4  16
BRANCH  10  18
HETATM   18  O4  UNK   900       6.892 -68.371 -52.387  1.00  0.00    -0.359 OA
HETATM   19  H13 UNK   900       6.049 -67.899 -52.474  1.00  0.00     0.217 HD
ENDBRANCH  10  18
BRANCH  12  20
HETATM   20  O6  UNK   900       9.965 -65.648 -49.971  1.00  0.00    -0.360 OA
HETATM   21  H14 UNK   900      10.821 -65.999 -49.670  1.00  0.00     0.217 HD
ENDBRANCH  12  20
TORSDOF 4
ENDMDL
MODEL 8
REMARK VINA RESULT:      -4.9     18.915     20.154
REMARK  4 active torsions:
REMARK  status: ('A' for Active; 'I' for Inactive)
REMARK    1  A    between atoms: O2_2  and  C1_7 
REMARK    2  A    between atoms: O3_3  and  C2_8 
REMARK    3  A    between atoms: O4_4  and  C8_14 
REMARK    4  A    between atoms: O6_6  and  C10_16 
ROOT
HETATM    1  O1  UNK   900       5.004 -44.057 -73.855  1.00  0.00    -0.277 OA
HETATM    2  O5  UNK   900       5.554 -44.401 -71.689  1.00  0.00    -0.259 OA
HETATM    3  C1  UNK   900       4.829 -44.625 -75.175  1.00  0.00     0.199 C 
HETATM    4  C2  UNK   900       6.166 -45.206 -75.653  1.00  0.00     0.214 C 
HETATM    5  C3  UNK   900       6.663 -46.187 -74.622  1.00  0.00    -0.003 A 
HETATM    6  C4  UNK   900       6.369 -45.960 -73.271  1.00  0.00     0.082 A 
HETATM    7  C5  UNK   900       4.348 -43.493 -76.085  1.00  0.00     0.082 C 
HETATM    8  C6  UNK   900       7.451 -47.295 -74.967  1.00  0.00     0.048 A 
HETATM    9  C7  UNK   900       5.606 -44.757 -72.859  1.00  0.00     0.299 C 
HETATM   10  C8  UNK   900       6.830 -46.840 -72.285  1.00  0.00     0.091 A 
HETATM   11  C9  UNK   900       7.594 -47.949 -72.646  1.00  0.00     0.005 A 
HETATM   12  C10 UNK   900       7.907 -48.174 -73.984  1.00  0.00     0.074 A 
HETATM   13  C11 UNK   900       8.085 -48.898 -71.599  1.00  0.00     0.054 C 
ENDROOT
BRANCH   3  14
HETATM   14  O2  UNK   900       3.835 -45.653 -75.162  1.00  0.00    -0.357 OA
HETATM   15  C12 UNK   900       2.641 -45.219 -75.792  1.00  0.00     0.205 C 
ENDBRANCH   3  14
BRANCH   4  16
HETATM   16  O3  UNK   900       6.012 -45.826 -76.924  1.00  0.00    -0.385 OA
HETATM   17  H6  UNK   900       6.533 -45.316 -77.567  1.00  0.00     0.210 HD
ENDBRANCH   4  16
BRANCH  10  18
HETATM   18  O4  UNK   900       6.544 -46.657 -70.963  1.00  0.00    -0.359 OA
HETATM   19  H13 UNK   900       6.248 -47.489 -70.561  1.00  0.00     0.217 HD
ENDBRANCH  10  18
BRANCH  12  20
HETATM   20  O6  UNK   900       8.663 -49.246 -74.353  1.00  0.00    -0.360 OA
HETATM   21  H14 UNK   900       9.091 -49.622 -73.564  1.00  0.00     0.217 HD
ENDBRANCH  12  20
TORSDOF 4
ENDMDL
MODEL 9
REMARK VINA RESULT:      -4.9     20.695     21.703
REMARK  4 active torsions:
REMARK  status: ('A' for Active; 'I' for Inactive)
REMARK    1  A    between atoms: O2_2  and  C1_7 
REMARK    2  A    between atoms: O3_3  and  C2_8 
REMARK    3  A    between atoms: O4_4  and  C8_14 
REMARK    4  A    between atoms: O6_6  and  C10_16 
ROOT
HETATM    1  O1  UNK   900      20.851 -30.280 -49.535  1.00  0.00    -0.277 OA
HETATM    2  O5  UNK   900      20.431 -28.270 -50.480  1.00  0.00    -0.259 OA
HETATM    3  C1  UNK   900      21.832 -31.184 -48.972  1.00  0.00     0.199 C 
HETATM    4  C2  UNK   900      22.880 -31.516 -50.042  1.00  0.00     0.214 C 
HETATM    5  C3  UNK   900      23.460 -30.229 -50.568  1.00  0.00    -0.003 A 
HETATM    6  C4  UNK   900      22.644 -29.091 -50.627  1.00  0.00     0.082 A 
HETATM    7  C5  UNK   900      21.075 -32.433 -48.515  1.00  0.00     0.082 C 
HETATM    8  C6  UNK   900      24.776 -30.145 -51.046  1.00  0.00     0.048 A 
HETATM    9  C7  UNK   900      21.225 -29.160 -50.206  1.00  0.00     0.299 C 
HETATM   10  C8  UNK   900      23.144 -27.883 -51.128  1.00  0.00     0.091 A 
HETATM   11  C9  UNK   900      24.461 -27.809 -51.578  1.00  0.00     0.005 A 
HETATM   12  C10 UNK   900      25.275 -28.939 -51.542  1.00  0.00     0.074 A 
HETATM   13  C11 UNK   900      25.005 -26.520 -52.109  1.00  0.00     0.054 C 
ENDROOT
BRANCH   3  14
HETATM   14  O2  UNK   900      22.474 -30.598 -47.836  1.00  0.00    -0.357 OA
HETATM   15  C12 UNK   900      21.605 -30.567 -46.716  1.00  0.00     0.205 C 
ENDBRANCH   3  14
BRANCH   4  16
HETATM   16  O3  UNK   900      23.893 -32.356 -49.500  1.00  0.00    -0.385 OA
HETATM   17  H6  UNK   900      23.770 -33.246 -49.871  1.00  0.00     0.210 HD
ENDBRANCH   4  16
BRANCH  10  18
HETATM   18  O4  UNK   900      22.381 -26.752 -51.179  1.00  0.00    -0.359 OA
HETATM   19  H13 UNK   900      22.938 -25.974 -51.335  1.00  0.00     0.217 HD
ENDBRANCH  10  18
BRANCH  12  20
HETATM   20  O6  UNK   900      26.561 -28.888 -51.989  1.00  0.00    -0.360 OA
HETATM   21  H14 UNK   900      26.768 -29.714 -52.458  1.00  0.00     0.217 HD
ENDBRANCH  12  20
TORSDOF 4
ENDMDL
