MODEL 1
REMARK VINA RESULT:      -4.8      0.000      0.000
REMARK  9 active torsions:
REMARK  status: ('A' for Active; 'I' for Inactive)
REMARK    1  A    between atoms: O2_2  and  C13_16 
REMARK    2  A    between atoms: C1_4  and  C5_8 
REMARK    3  A    between atoms: C2_5  and  C6_9 
REMARK    4  A    between atoms: C5_8  and  C9_12 
REMARK    5  A    between atoms: C6_9  and  C8_11 
REMARK    6  A    between atoms: C8_11  and  C10_13 
REMARK    7  A    between atoms: C9_12  and  C11_14 
REMARK    8  A    between atoms: C10_13  and  C12_15 
REMARK    9  A    between atoms: C11_14  and  C13_16 
ROOT
HETATM    1  O1  UNK   900      34.664 -40.852 -55.543  1.00  0.00    -0.298 OA
HETATM    2  C1  UNK   900      35.495 -37.508 -56.407  1.00  0.00    -0.003 C 
HETATM    3  C2  UNK   900      36.021 -38.869 -55.905  1.00  0.00     0.059 C 
HETATM    4  C3  UNK   900      34.172 -37.347 -55.647  1.00  0.00     0.013 C 
HETATM    5  C4  UNK   900      33.528 -38.730 -55.662  1.00  0.00     0.079 C 
HETATM    6  C7  UNK   900      34.730 -39.637 -55.687  1.00  0.00     0.131 C 
ENDROOT
BRANCH   2   7
HETATM    7  C5  UNK   900      35.283 -37.417 -57.919  1.00  0.00     0.006 C 
BRANCH   7   8
HETATM    8  C9  UNK   900      34.353 -36.262 -58.275  1.00  0.00     0.010 C 
BRANCH   8   9
HETATM    9  C11 UNK   900      35.073 -34.921 -58.148  1.00  0.00     0.111 C 
BRANCH   9  10
HETATM   10  C13 UNK   900      34.774 -34.006 -59.314  1.00  0.00     0.258 C 
HETATM   11  O3  UNK   900      35.194 -34.154 -60.453  1.00  0.00    -0.265 OA
BRANCH  10  12
HETATM   12  O2  UNK   900      33.963 -32.993 -58.884  1.00  0.00    -0.326 OA
HETATM   13  C15 UNK   900      34.636 -31.819 -58.422  1.00  0.00     0.213 C 
ENDBRANCH  10  12
ENDBRANCH   9  10
ENDBRANCH   8   9
ENDBRANCH   7   8
ENDBRANCH   2   7
BRANCH   3  14
HETATM   14  C6  UNK   900      36.991 -39.590 -56.821  1.00  0.00     0.012 C 
BRANCH  14  15
HETATM   15  C8  UNK   900      38.211 -40.104 -56.055  1.00  0.00     0.001 C 
BRANCH  15  16
HETATM   16  C10 UNK   900      38.055 -39.893 -54.548  1.00  0.00    -0.000 C 
BRANCH  16  17
HETATM   17  C12 UNK   900      37.738 -41.207 -53.832  1.00  0.00    -0.005 C 
HETATM   18  C14 UNK   900      37.853 -42.395 -54.772  1.00  0.00     0.005 C 
ENDBRANCH  16  17
ENDBRANCH  15  16
ENDBRANCH  14  15
ENDBRANCH   3  14
TORSDOF 9
ENDMDL
MODEL 2
REMARK VINA RESULT:      -4.7     14.973     17.387
REMARK  9 active torsions:
REMARK  status: ('A' for Active; 'I' for Inactive)
REMARK    1  A    between atoms: O2_2  and  C13_16 
REMARK    2  A    between atoms: C1_4  and  C5_8 
REMARK    3  A    between atoms: C2_5  and  C6_9 
REMARK    4  A    between atoms: C5_8  and  C9_12 
REMARK    5  A    between atoms: C6_9  and  C8_11 
REMARK    6  A    between atoms: C8_11  and  C10_13 
REMARK    7  A    between atoms: C9_12  and  C11_14 
REMARK    8  A    between atoms: C10_13  and  C12_15 
REMARK    9  A    between atoms: C11_14  and  C13_16 
ROOT
HETATM    1  O1  UNK   900      22.435 -29.904 -50.269  1.00  0.00    -0.298 OA
HETATM    2  C1  UNK   900      23.752 -32.592 -48.358  1.00  0.00    -0.003 C 
HETATM    3  C2  UNK   900      24.003 -31.178 -48.919  1.00  0.00     0.059 C 
HETATM    4  C3  UNK   900      23.056 -33.308 -49.523  1.00  0.00     0.013 C 
HETATM    5  C4  UNK   900      22.089 -32.283 -50.106  1.00  0.00     0.079 C 
HETATM    6  C7  UNK   900      22.796 -30.984 -49.819  1.00  0.00     0.131 C 
ENDROOT
BRANCH   2   7
HETATM    7  C5  UNK   900      22.901 -32.639 -47.088  1.00  0.00     0.006 C 
BRANCH   7   8
HETATM    8  C9  UNK   900      22.112 -33.942 -47.003  1.00  0.00     0.010 C 
BRANCH   8   9
HETATM    9  C11 UNK   900      20.808 -33.742 -46.233  1.00  0.00     0.111 C 
BRANCH   9  10
HETATM   10  C13 UNK   900      19.604 -34.180 -47.036  1.00  0.00     0.258 C 
HETATM   11  O3  UNK   900      18.926 -35.172 -46.808  1.00  0.00    -0.265 OA
BRANCH  10  12
HETATM   12  O2  UNK   900      19.403 -33.288 -48.052  1.00  0.00    -0.326 OA
HETATM   13  C15 UNK   900      18.984 -31.981 -47.651  1.00  0.00     0.213 C 
ENDBRANCH  10  12
ENDBRANCH   9  10
ENDBRANCH   8   9
ENDBRANCH   7   8
ENDBRANCH   2   7
BRANCH   3  14
HETATM   14  C6  UNK   900      24.161 -30.069 -47.896  1.00  0.00     0.012 C 
BRANCH  14  15
HETATM   15  C8  UNK   900      25.164 -29.013 -48.361  1.00  0.00     0.001 C 
BRANCH  15  16
HETATM   16  C10 UNK   900      26.133 -29.580 -49.400  1.00  0.00    -0.000 C 
BRANCH  16  17
HETATM   17  C12 UNK   900      26.142 -28.734 -50.674  1.00  0.00    -0.005 C 
HETATM   18  C14 UNK   900      25.606 -29.514 -51.863  1.00  0.00     0.005 C 
ENDBRANCH  16  17
ENDBRANCH  15  16
ENDBRANCH  14  15
ENDBRANCH   3  14
TORSDOF 9
ENDMDL
MODEL 3
REMARK VINA RESULT:      -4.6     24.499     26.543
REMARK  9 active torsions:
REMARK  status: ('A' for Active; 'I' for Inactive)
REMARK    1  A    between atoms: O2_2  and  C13_16 
REMARK    2  A    between atoms: C1_4  and  C5_8 
REMARK    3  A    between atoms: C2_5  and  C6_9 
REMARK    4  A    between atoms: C5_8  and  C9_12 
REMARK    5  A    between atoms: C6_9  and  C8_11 
REMARK    6  A    between atoms: C8_11  and  C10_13 
REMARK    7  A    between atoms: C9_12  and  C11_14 
REMARK    8  A    between atoms: C10_13  and  C12_15 
REMARK    9  A    between atoms: C11_14  and  C13_16 
ROOT
HETATM    1  O1  UNK   900      22.671 -18.615 -74.155  1.00  0.00    -0.298 OA
HETATM    2  C1  UNK   900      23.698 -21.657 -72.635  1.00  0.00    -0.003 C 
HETATM    3  C2  UNK   900      23.026 -21.001 -73.858  1.00  0.00     0.059 C 
HETATM    4  C3  UNK   900      23.123 -20.861 -71.456  1.00  0.00     0.013 C 
HETATM    5  C4  UNK   900      23.103 -19.409 -71.921  1.00  0.00     0.079 C 
HETATM    6  C7  UNK   900      22.906 -19.557 -73.407  1.00  0.00     0.131 C 
ENDROOT
BRANCH   2   7
HETATM    7  C5  UNK   900      25.227 -21.615 -72.641  1.00  0.00     0.006 C 
BRANCH   7   8
HETATM    8  C9  UNK   900      25.811 -22.938 -73.127  1.00  0.00     0.010 C 
BRANCH   8   9
HETATM    9  C11 UNK   900      27.013 -22.702 -74.040  1.00  0.00     0.111 C 
BRANCH   9  10
HETATM   10  C13 UNK   900      26.761 -23.196 -75.447  1.00  0.00     0.258 C 
HETATM   11  O3  UNK   900      26.280 -24.282 -75.737  1.00  0.00    -0.265 OA
BRANCH  10  12
HETATM   12  O2  UNK   900      27.160 -22.234 -76.331  1.00  0.00    -0.326 OA
HETATM   13  C15 UNK   900      27.404 -20.942 -75.767  1.00  0.00     0.213 C 
ENDBRANCH  10  12
ENDBRANCH   9  10
ENDBRANCH   8   9
ENDBRANCH   7   8
ENDBRANCH   2   7
BRANCH   3  14
HETATM   14  C6  UNK   900      23.753 -21.149 -75.181  1.00  0.00     0.012 C 
BRANCH  14  15
HETATM   15  C8  UNK   900      23.114 -22.227 -76.057  1.00  0.00     0.001 C 
BRANCH  15  16
HETATM   16  C10 UNK   900      22.283 -23.205 -75.224  1.00  0.00    -0.000 C 
BRANCH  16  17
HETATM   17  C12 UNK   900      22.955 -24.576 -75.142  1.00  0.00    -0.005 C 
HETATM   18  C14 UNK   900      22.998 -25.257 -76.500  1.00  0.00     0.005 C 
ENDBRANCH  16  17
ENDBRANCH  15  16
ENDBRANCH  14  15
ENDBRANCH   3  14
TORSDOF 9
ENDMDL
MODEL 4
REMARK VINA RESULT:      -4.5     14.058     15.504
REMARK  9 active torsions:
REMARK  status: ('A' for Active; 'I' for Inactive)
REMARK    1  A    between atoms: O2_2  and  C13_16 
REMARK    2  A    between atoms: C1_4  and  C5_8 
REMARK    3  A    between atoms: C2_5  and  C6_9 
REMARK    4  A    between atoms: C5_8  and  C9_12 
REMARK    5  A    between atoms: C6_9  and  C8_11 
REMARK    6  A    between atoms: C8_11  and  C10_13 
REMARK    7  A    between atoms: C9_12  and  C11_14 
REMARK    8  A    between atoms: C10_13  and  C12_15 
REMARK    9  A    between atoms: C11_14  and  C13_16 
ROOT
HETATM    1  O1  UNK   900      22.301 -29.628 -47.780  1.00  0.00    -0.298 OA
HETATM    2  C1  UNK   900      24.955 -30.546 -49.955  1.00  0.00    -0.003 C 
HETATM    3  C2  UNK   900      23.697 -31.021 -49.201  1.00  0.00     0.059 C 
HETATM    4  C3  UNK   900      25.648 -29.636 -48.933  1.00  0.00     0.013 C 
HETATM    5  C4  UNK   900      24.526 -28.843 -48.272  1.00  0.00     0.079 C 
HETATM    6  C7  UNK   900      23.371 -29.808 -48.348  1.00  0.00     0.131 C 
ENDROOT
BRANCH   2   7
HETATM    7  C5  UNK   900      24.679 -29.804 -51.264  1.00  0.00     0.006 C 
BRANCH   7   8
HETATM    8  C9  UNK   900      25.979 -29.363 -51.930  1.00  0.00     0.010 C 
BRANCH   8   9
HETATM    9  C11 UNK   900      25.902 -27.901 -52.366  1.00  0.00     0.111 C 
BRANCH   9  10
HETATM   10  C13 UNK   900      27.266 -27.251 -52.410  1.00  0.00     0.258 C 
HETATM   11  O3  UNK   900      28.096 -27.292 -51.513  1.00  0.00    -0.265 OA
BRANCH  10  12
HETATM   12  O2  UNK   900      27.413 -26.612 -53.609  1.00  0.00    -0.326 OA
HETATM   13  C15 UNK   900      27.440 -25.183 -53.547  1.00  0.00     0.213 C 
ENDBRANCH  10  12
ENDBRANCH   9  10
ENDBRANCH   8   9
ENDBRANCH   7   8
ENDBRANCH   2   7
BRANCH   3  14
HETATM   14  C6  UNK   900      22.530 -31.470 -50.060  1.00  0.00     0.012 C 
BRANCH  14  15
HETATM   15  C8  UNK   900      22.044 -32.865 -49.666  1.00  0.00     0.001 C 
BRANCH  15  16
HETATM   16  C10 UNK   900      22.977 -33.514 -48.642  1.00  0.00    -0.000 C 
BRANCH  16  17
HETATM   17  C12 UNK   900      22.245 -33.817 -47.335  1.00  0.00    -0.005 C 
HETATM   18  C14 UNK   900      20.768 -33.470 -47.430  1.00  0.00     0.005 C 
ENDBRANCH  16  17
ENDBRANCH  15  16
ENDBRANCH  14  15
ENDBRANCH   3  14
TORSDOF 9
ENDMDL
MODEL 5
REMARK VINA RESULT:      -4.5     33.005     35.038
REMARK  9 active torsions:
REMARK  status: ('A' for Active; 'I' for Inactive)
REMARK    1  A    between atoms: O2_2  and  C13_16 
REMARK    2  A    between atoms: C1_4  and  C5_8 
REMARK    3  A    between atoms: C2_5  and  C6_9 
REMARK    4  A    between atoms: C5_8  and  C9_12 
REMARK    5  A    between atoms: C6_9  and  C8_11 
REMARK    6  A    between atoms: C8_11  and  C10_13 
REMARK    7  A    between atoms: C9_12  and  C11_14 
REMARK    8  A    between atoms: C10_13  and  C12_15 
REMARK    9  A    between atoms: C11_14  and  C13_16 
ROOT
HETATM    1  O1  UNK   900       1.515 -44.270 -61.674  1.00  0.00    -0.298 OA
HETATM    2  C1  UNK   900       3.996 -46.157 -59.971  1.00  0.00    -0.003 C 
HETATM    3  C2  UNK   900       2.946 -45.033 -59.864  1.00  0.00     0.059 C 
HETATM    4  C3  UNK   900       4.640 -45.899 -61.339  1.00  0.00     0.013 C 
HETATM    5  C4  UNK   900       3.487 -45.524 -62.263  1.00  0.00     0.079 C 
HETATM    6  C7  UNK   900       2.521 -44.868 -61.311  1.00  0.00     0.131 C 
ENDROOT
BRANCH   2   7
HETATM    7  C5  UNK   900       3.432 -47.576 -59.879  1.00  0.00     0.006 C 
BRANCH   7   8
HETATM    8  C9  UNK   900       3.943 -48.291 -58.633  1.00  0.00     0.010 C 
BRANCH   8   9
HETATM    9  C11 UNK   900       3.227 -49.626 -58.435  1.00  0.00     0.111 C 
BRANCH   9  10
HETATM   10  C13 UNK   900       1.723 -49.472 -58.471  1.00  0.00     0.258 C 
HETATM   11  O3  UNK   900       0.989 -49.918 -59.340  1.00  0.00    -0.265 OA
BRANCH  10  12
HETATM   12  O2  UNK   900       1.326 -48.753 -57.378  1.00  0.00    -0.326 OA
HETATM   13  C15 UNK   900      -0.010 -48.247 -57.426  1.00  0.00     0.213 C 
ENDBRANCH  10  12
ENDBRANCH   9  10
ENDBRANCH   8   9
ENDBRANCH   7   8
ENDBRANCH   2   7
BRANCH   3  14
HETATM   14  C6  UNK   900       1.778 -45.294 -58.931  1.00  0.00     0.012 C 
BRANCH  14  15
HETATM   15  C8  UNK   900       1.424 -44.052 -58.111  1.00  0.00     0.001 C 
BRANCH  15  16
HETATM   16  C10 UNK   900       1.389 -44.363 -56.613  1.00  0.00    -0.000 C 
BRANCH  16  17
HETATM   17  C12 UNK   900       1.105 -43.106 -55.791  1.00  0.00    -0.005 C 
HETATM   18  C14 UNK   900       1.459 -41.844 -56.561  1.00  0.00     0.005 C 
ENDBRANCH  16  17
ENDBRANCH  15  16
ENDBRANCH  14  15
ENDBRANCH   3  14
TORSDOF 9
ENDMDL
MODEL 6
REMARK VINA RESULT:      -4.4      3.876      7.082
REMARK  9 active torsions:
REMARK  status: ('A' for Active; 'I' for Inactive)
REMARK    1  A    between atoms: O2_2  and  C13_16 
REMARK    2  A    between atoms: C1_4  and  C5_8 
REMARK    3  A    between atoms: C2_5  and  C6_9 
REMARK    4  A    between atoms: C5_8  and  C9_12 
REMARK    5  A    between atoms: C6_9  and  C8_11 
REMARK    6  A    between atoms: C8_11  and  C10_13 
REMARK    7  A    between atoms: C9_12  and  C11_14 
REMARK    8  A    between atoms: C10_13  and  C12_15 
REMARK    9  A    between atoms: C11_14  and  C13_16 
ROOT
HETATM    1  O1  UNK   900      34.172 -30.509 -59.182  1.00  0.00    -0.298 OA
HETATM    2  C1  UNK   900      36.602 -33.099 -59.123  1.00  0.00    -0.003 C 
HETATM    3  C2  UNK   900      35.290 -32.561 -58.516  1.00  0.00     0.059 C 
HETATM    4  C3  UNK   900      37.454 -31.834 -59.283  1.00  0.00     0.013 C 
HETATM    5  C4  UNK   900      36.492 -30.761 -59.784  1.00  0.00     0.079 C 
HETATM    6  C7  UNK   900      35.189 -31.193 -59.164  1.00  0.00     0.131 C 
ENDROOT
BRANCH   2   7
HETATM    7  C5  UNK   900      36.441 -33.834 -60.455  1.00  0.00     0.006 C 
BRANCH   7   8
HETATM    8  C9  UNK   900      37.401 -35.015 -60.550  1.00  0.00     0.010 C 
BRANCH   8   9
HETATM    9  C11 UNK   900      37.287 -35.913 -59.319  1.00  0.00     0.111 C 
BRANCH   9  10
HETATM   10  C13 UNK   900      37.344 -37.380 -59.681  1.00  0.00     0.258 C 
HETATM   11  O3  UNK   900      36.789 -38.280 -59.068  1.00  0.00    -0.265 OA
BRANCH  10  12
HETATM   12  O2  UNK   900      38.116 -37.529 -60.799  1.00  0.00    -0.326 OA
HETATM   13  C15 UNK   900      38.026 -38.803 -61.444  1.00  0.00     0.213 C 
ENDBRANCH  10  12
ENDBRANCH   9  10
ENDBRANCH   8   9
ENDBRANCH   7   8
ENDBRANCH   2   7
BRANCH   3  14
HETATM   14  C6  UNK   900      34.053 -33.412 -58.734  1.00  0.00     0.012 C 
BRANCH  14  15
HETATM   15  C8  UNK   900      33.946 -34.527 -57.693  1.00  0.00     0.001 C 
BRANCH  15  16
HETATM   16  C10 UNK   900      33.743 -35.892 -58.354  1.00  0.00    -0.000 C 
BRANCH  16  17
HETATM   17  C12 UNK   900      32.981 -36.847 -57.436  1.00  0.00    -0.005 C 
HETATM   18  C14 UNK   900      31.513 -36.936 -57.819  1.00  0.00     0.005 C 
ENDBRANCH  16  17
ENDBRANCH  15  16
ENDBRANCH  14  15
ENDBRANCH   3  14
TORSDOF 9
ENDMDL
MODEL 7
REMARK VINA RESULT:      -4.0     24.373     26.317
REMARK  9 active torsions:
REMARK  status: ('A' for Active; 'I' for Inactive)
REMARK    1  A    between atoms: O2_2  and  C13_16 
REMARK    2  A    between atoms: C1_4  and  C5_8 
REMARK    3  A    between atoms: C2_5  and  C6_9 
REMARK    4  A    between atoms: C5_8  and  C9_12 
REMARK    5  A    between atoms: C6_9  and  C8_11 
REMARK    6  A    between atoms: C8_11  and  C10_13 
REMARK    7  A    between atoms: C9_12  and  C11_14 
REMARK    8  A    between atoms: C10_13  and  C12_15 
REMARK    9  A    between atoms: C11_14  and  C13_16 
ROOT
HETATM    1  O1  UNK   900      23.715 -21.891 -77.838  1.00  0.00    -0.298 OA
HETATM    2  C1  UNK   900      24.405 -23.626 -74.816  1.00  0.00    -0.003 C 
HETATM    3  C2  UNK   900      24.994 -22.823 -75.994  1.00  0.00     0.059 C 
HETATM    4  C3  UNK   900      23.362 -24.523 -75.496  1.00  0.00     0.013 C 
HETATM    5  C4  UNK   900      22.683 -23.635 -76.534  1.00  0.00     0.079 C 
HETATM    6  C7  UNK   900      23.788 -22.681 -76.905  1.00  0.00     0.131 C 
ENDROOT
BRANCH   2   7
HETATM    7  C5  UNK   900      23.774 -22.778 -73.711  1.00  0.00     0.006 C 
BRANCH   7   8
HETATM    8  C9  UNK   900      24.676 -22.718 -72.482  1.00  0.00     0.010 C 
BRANCH   8   9
HETATM    9  C11 UNK   900      23.908 -22.206 -71.264  1.00  0.00     0.111 C 
BRANCH   9  10
HETATM   10  C13 UNK   900      24.518 -20.943 -70.700  1.00  0.00     0.258 C 
HETATM   11  O3  UNK   900      25.310 -20.897 -69.770  1.00  0.00    -0.265 OA
BRANCH  10  12
HETATM   12  O2  UNK   900      24.038 -19.871 -71.398  1.00  0.00    -0.326 OA
HETATM   13  C15 UNK   900      22.710 -19.461 -71.060  1.00  0.00     0.213 C 
ENDBRANCH  10  12
ENDBRANCH   9  10
ENDBRANCH   8   9
ENDBRANCH   7   8
ENDBRANCH   2   7
BRANCH   3  14
HETATM   14  C6  UNK   900      25.631 -21.492 -75.645  1.00  0.00     0.012 C 
BRANCH  14  15
HETATM   15  C8  UNK   900      27.108 -21.652 -75.283  1.00  0.00     0.001 C 
BRANCH  15  16
HETATM   16  C10 UNK   900      27.471 -20.838 -74.039  1.00  0.00    -0.000 C 
BRANCH  16  17
HETATM   17  C12 UNK   900      26.467 -19.710 -73.800  1.00  0.00    -0.005 C 
HETATM   18  C14 UNK   900      27.058 -18.355 -74.154  1.00  0.00     0.005 C 
ENDBRANCH  16  17
ENDBRANCH  15  16
ENDBRANCH  14  15
ENDBRANCH   3  14
TORSDOF 9
ENDMDL
MODEL 8
REMARK VINA RESULT:      -4.0     33.953     36.032
REMARK  9 active torsions:
REMARK  status: ('A' for Active; 'I' for Inactive)
REMARK    1  A    between atoms: O2_2  and  C13_16 
REMARK    2  A    between atoms: C1_4  and  C5_8 
REMARK    3  A    between atoms: C2_5  and  C6_9 
REMARK    4  A    between atoms: C5_8  and  C9_12 
REMARK    5  A    between atoms: C6_9  and  C8_11 
REMARK    6  A    between atoms: C8_11  and  C10_13 
REMARK    7  A    between atoms: C9_12  and  C11_14 
REMARK    8  A    between atoms: C10_13  and  C12_15 
REMARK    9  A    between atoms: C11_14  and  C13_16 
ROOT
HETATM    1  O1  UNK   900      -1.411 -49.274 -58.808  1.00  0.00    -0.298 OA
HETATM    2  C1  UNK   900       2.087 -49.497 -59.386  1.00  0.00    -0.003 C 
HETATM    3  C2  UNK   900       0.693 -50.049 -59.747  1.00  0.00     0.059 C 
HETATM    4  C3  UNK   900       2.002 -49.309 -57.866  1.00  0.00     0.013 C 
HETATM    5  C4  UNK   900       0.609 -48.742 -57.607  1.00  0.00     0.079 C 
HETATM    6  C7  UNK   900      -0.190 -49.345 -58.733  1.00  0.00     0.131 C 
ENDROOT
BRANCH   2   7
HETATM    7  C5  UNK   900       2.464 -48.192 -60.089  1.00  0.00     0.006 C 
BRANCH   7   8
HETATM    8  C9  UNK   900       3.609 -47.490 -59.366  1.00  0.00     0.010 C 
BRANCH   8   9
HETATM    9  C11 UNK   900       3.643 -46.002 -59.710  1.00  0.00     0.111 C 
BRANCH   9  10
HETATM   10  C13 UNK   900       3.853 -45.767 -61.189  1.00  0.00     0.258 C 
HETATM   11  O3  UNK   900       2.991 -45.397 -61.973  1.00  0.00    -0.265 OA
BRANCH  10  12
HETATM   12  O2  UNK   900       5.156 -46.038 -61.499  1.00  0.00    -0.326 OA
HETATM   13  C15 UNK   900       5.740 -45.195 -62.495  1.00  0.00     0.213 C 
ENDBRANCH  10  12
ENDBRANCH   9  10
ENDBRANCH   8   9
ENDBRANCH   7   8
ENDBRANCH   2   7
BRANCH   3  14
HETATM   14  C6  UNK   900       0.237 -49.834 -61.178  1.00  0.00     0.012 C 
BRANCH  14  15
HETATM   15  C8  UNK   900      -0.079 -51.159 -61.873  1.00  0.00     0.001 C 
BRANCH  15  16
HETATM   16  C10 UNK   900       0.487 -51.195 -63.293  1.00  0.00    -0.000 C 
BRANCH  16  17
HETATM   17  C12 UNK   900      -0.049 -52.393 -64.077  1.00  0.00    -0.005 C 
HETATM   18  C14 UNK   900       0.911 -52.814 -65.177  1.00  0.00     0.005 C 
ENDBRANCH  16  17
ENDBRANCH  15  16
ENDBRANCH  14  15
ENDBRANCH   3  14
TORSDOF 9
ENDMDL
MODEL 9
REMARK VINA RESULT:      -3.9     29.250     31.906
REMARK  9 active torsions:
REMARK  status: ('A' for Active; 'I' for Inactive)
REMARK    1  A    between atoms: O2_2  and  C13_16 
REMARK    2  A    between atoms: C1_4  and  C5_8 
REMARK    3  A    between atoms: C2_5  and  C6_9 
REMARK    4  A    between atoms: C5_8  and  C9_12 
REMARK    5  A    between atoms: C6_9  and  C8_11 
REMARK    6  A    between atoms: C8_11  and  C10_13 
REMARK    7  A    between atoms: C9_12  and  C11_14 
REMARK    8  A    between atoms: C10_13  and  C12_15 
REMARK    9  A    between atoms: C11_14  and  C13_16 
ROOT
HETATM    1  O1  UNK   900      30.360 -67.398 -69.927  1.00  0.00    -0.298 OA
HETATM    2  C1  UNK   900      29.762 -67.167 -66.434  1.00  0.00    -0.003 C 
HETATM    3  C2  UNK   900      30.692 -66.779 -67.601  1.00  0.00     0.059 C 
HETATM    4  C3  UNK   900      29.404 -68.626 -66.747  1.00  0.00     0.013 C 
HETATM    5  C4  UNK   900      29.180 -68.671 -68.255  1.00  0.00     0.079 C 
HETATM    6  C7  UNK   900      30.108 -67.589 -68.744  1.00  0.00     0.131 C 
ENDROOT
BRANCH   2   7
HETATM    7  C5  UNK   900      28.507 -66.304 -66.295  1.00  0.00     0.006 C 
BRANCH   7   8
HETATM    8  C9  UNK   900      27.919 -66.410 -64.892  1.00  0.00     0.010 C 
BRANCH   8   9
HETATM    9  C11 UNK   900      26.416 -66.675 -64.947  1.00  0.00     0.111 C 
BRANCH   9  10
HETATM   10  C13 UNK   900      26.088 -68.131 -64.703  1.00  0.00     0.258 C 
HETATM   11  O3  UNK   900      26.901 -68.998 -64.417  1.00  0.00    -0.265 OA
BRANCH  10  12
HETATM   12  O2  UNK   900      24.742 -68.312 -64.856  1.00  0.00    -0.326 OA
HETATM   13  C15 UNK   900      23.951 -67.121 -64.813  1.00  0.00     0.213 C 
ENDBRANCH  10  12
ENDBRANCH   9  10
ENDBRANCH   8   9
ENDBRANCH   7   8
ENDBRANCH   2   7
BRANCH   3  14
HETATM   14  C6  UNK   900      30.789 -65.298 -67.916  1.00  0.00     0.012 C 
BRANCH  14  15
HETATM   15  C8  UNK   900      32.243 -64.851 -68.075  1.00  0.00     0.001 C 
BRANCH  15  16
HETATM   16  C10 UNK   900      32.480 -64.191 -69.434  1.00  0.00    -0.000 C 
BRANCH  16  17
HETATM   17  C12 UNK   900      32.495 -62.667 -69.318  1.00  0.00    -0.005 C 
HETATM   18  C14 UNK   900      32.166 -62.004 -70.645  1.00  0.00     0.005 C 
ENDBRANCH  16  17
ENDBRANCH  15  16
ENDBRANCH  14  15
ENDBRANCH   3  14
TORSDOF 9
ENDMDL
