MODEL 1
REMARK VINA RESULT:      -5.9      0.000      0.000
REMARK  6 active torsions:
REMARK  status: ('A' for Active; 'I' for Inactive)
REMARK    1  A    between atoms: O1_1  and  C4_8 
REMARK    2  A    between atoms: O2_2  and  C7_11 
REMARK    3  A    between atoms: O3_3  and  C11_15 
REMARK    4  A    between atoms: O4_4  and  C14_18 
REMARK    5  A    between atoms: C8_12  and  C11_15 
REMARK    6  A    between atoms: C11_15  and  C14_18 
ROOT
HETATM    1  C1  UNK   900      24.897 -21.527 -75.260  1.00  0.00    -0.001 C 
HETATM    2  C2  UNK   900      24.299 -22.889 -75.675  1.00  0.00     0.026 C 
HETATM    3  C3  UNK   900      26.005 -21.373 -76.329  1.00  0.00     0.015 C 
HETATM    4  C4  UNK   900      23.274 -23.575 -74.741  1.00  0.00     0.058 C 
HETATM    5  C5  UNK   900      25.413 -21.426 -73.813  1.00  0.00     0.013 C 
HETATM    6  C6  UNK   900      25.516 -23.747 -76.086  1.00  0.00     0.040 C 
HETATM    7  C7  UNK   900      26.648 -22.760 -76.388  1.00  0.00     0.122 C 
HETATM    8  C8  UNK   900      24.275 -21.399 -72.782  1.00  0.00     0.022 C 
HETATM    9  C9  UNK   900      23.813 -23.916 -73.341  1.00  0.00     0.038 C 
HETATM   10  C10 UNK   900      23.840 -22.790 -72.308  1.00  0.00     0.010 C 
HETATM   11  C12 UNK   900      27.022 -20.261 -76.107  1.00  0.00     0.013 C 
HETATM   12  C13 UNK   900      22.759 -24.869 -75.399  1.00  0.00     0.046 C 
ENDROOT
BRANCH   8  13
HETATM   13  C11 UNK   900      24.681 -20.561 -71.561  1.00  0.00     0.079 C 
HETATM   14  C15 UNK   900      24.386 -19.084 -71.816  1.00  0.00     0.048 C 
BRANCH  13  15
HETATM   15  O3  UNK   900      26.092 -20.693 -71.387  1.00  0.00    -0.388 OA
HETATM   16  H27 UNK   900      26.440 -19.831 -71.100  1.00  0.00     0.210 HD
ENDBRANCH  13  15
BRANCH  13  17
HETATM   17  C14 UNK   900      23.975 -21.084 -70.305  1.00  0.00     0.201 C 
BRANCH  17  18
HETATM   18  O4  UNK   900      24.934 -21.471 -69.327  1.00  0.00    -0.398 OA
HETATM   19  H28 UNK   900      24.565 -22.235 -68.850  1.00  0.00     0.209 HD
ENDBRANCH  17  18
ENDBRANCH  13  17
ENDBRANCH   8  13
BRANCH   4  20
HETATM   20  O1  UNK   900      22.137 -22.717 -74.592  1.00  0.00    -0.390 OA
HETATM   21  H20 UNK   900      21.371 -23.155 -75.001  1.00  0.00     0.210 HD
ENDBRANCH   4  20
BRANCH   7  22
HETATM   22  O2  UNK   900      27.208 -22.992 -77.670  1.00  0.00    -0.395 OA
HETATM   23  H21 UNK   900      27.890 -23.678 -77.570  1.00  0.00     0.210 HD
ENDBRANCH   7  22
TORSDOF 6
ENDMDL
MODEL 2
REMARK VINA RESULT:      -5.6     52.287     54.536
REMARK  6 active torsions:
REMARK  status: ('A' for Active; 'I' for Inactive)
REMARK    1  A    between atoms: O1_1  and  C4_8 
REMARK    2  A    between atoms: O2_2  and  C7_11 
REMARK    3  A    between atoms: O3_3  and  C11_15 
REMARK    4  A    between atoms: O4_4  and  C14_18 
REMARK    5  A    between atoms: C8_12  and  C11_15 
REMARK    6  A    between atoms: C11_15  and  C14_18 
ROOT
HETATM    1  C1  UNK   900       6.037 -66.357 -48.963  1.00  0.00    -0.001 C 
HETATM    2  C2  UNK   900       7.387 -66.590 -49.676  1.00  0.00     0.026 C 
HETATM    3  C3  UNK   900       6.404 -66.790 -47.523  1.00  0.00     0.015 C 
HETATM    4  C4  UNK   900       7.448 -66.495 -51.218  1.00  0.00     0.058 C 
HETATM    5  C5  UNK   900       4.825 -67.106 -49.546  1.00  0.00     0.013 C 
HETATM    6  C6  UNK   900       7.941 -67.893 -49.058  1.00  0.00     0.040 C 
HETATM    7  C7  UNK   900       7.208 -68.075 -47.725  1.00  0.00     0.122 C 
HETATM    8  C8  UNK   900       4.371 -66.533 -50.897  1.00  0.00     0.022 C 
HETATM    9  C9  UNK   900       6.559 -67.509 -51.957  1.00  0.00     0.038 C 
HETATM   10  C10 UNK   900       5.076 -67.165 -52.102  1.00  0.00     0.010 C 
HETATM   11  C12 UNK   900       5.250 -66.963 -46.544  1.00  0.00     0.013 C 
HETATM   12  C13 UNK   900       8.903 -66.680 -51.691  1.00  0.00     0.046 C 
ENDROOT
BRANCH   8  13
HETATM   13  C11 UNK   900       2.854 -66.699 -51.065  1.00  0.00     0.079 C 
HETATM   14  C15 UNK   900       2.307 -67.637 -49.990  1.00  0.00     0.048 C 
BRANCH  13  15
HETATM   15  O3  UNK   900       2.617 -67.315 -52.331  1.00  0.00    -0.388 OA
HETATM   16  H27 UNK   900       1.655 -67.349 -52.472  1.00  0.00     0.210 HD
ENDBRANCH  13  15
BRANCH  13  17
HETATM   17  C14 UNK   900       2.168 -65.330 -51.042  1.00  0.00     0.201 C 
BRANCH  17  18
HETATM   18  O4  UNK   900       0.905 -65.401 -51.694  1.00  0.00    -0.398 OA
HETATM   19  H28 UNK   900       0.870 -64.669 -52.333  1.00  0.00     0.209 HD
ENDBRANCH  17  18
ENDBRANCH  13  17
ENDBRANCH   8  13
BRANCH   4  20
HETATM   20  O1  UNK   900       7.058 -65.175 -51.616  1.00  0.00    -0.390 OA
HETATM   21  H20 UNK   900       7.588 -64.924 -52.393  1.00  0.00     0.210 HD
ENDBRANCH   4  20
BRANCH   7  22
HETATM   22  O2  UNK   900       8.120 -68.261 -46.655  1.00  0.00    -0.395 OA
HETATM   23  H21 UNK   900       8.903 -67.716 -46.840  1.00  0.00     0.210 HD
ENDBRANCH   7  22
TORSDOF 6
ENDMDL
MODEL 3
REMARK VINA RESULT:      -5.2     47.054     49.778
REMARK  6 active torsions:
REMARK  status: ('A' for Active; 'I' for Inactive)
REMARK    1  A    between atoms: O1_1  and  C4_8 
REMARK    2  A    between atoms: O2_2  and  C7_11 
REMARK    3  A    between atoms: O3_3  and  C11_15 
REMARK    4  A    between atoms: O4_4  and  C14_18 
REMARK    5  A    between atoms: C8_12  and  C11_15 
REMARK    6  A    between atoms: C11_15  and  C14_18 
ROOT
HETATM    1  C1  UNK   900       5.619 -65.497 -63.658  1.00  0.00    -0.001 C 
HETATM    2  C2  UNK   900       5.477 -64.303 -62.688  1.00  0.00     0.026 C 
HETATM    3  C3  UNK   900       5.943 -64.750 -64.973  1.00  0.00     0.015 C 
HETATM    4  C4  UNK   900       4.931 -64.554 -61.263  1.00  0.00     0.058 C 
HETATM    5  C5  UNK   900       4.404 -66.435 -63.759  1.00  0.00     0.013 C 
HETATM    6  C6  UNK   900       4.749 -63.214 -63.507  1.00  0.00     0.040 C 
HETATM    7  C7  UNK   900       4.954 -63.582 -64.980  1.00  0.00     0.122 C 
HETATM    8  C8  UNK   900       4.216 -67.297 -62.502  1.00  0.00     0.022 C 
HETATM    9  C9  UNK   900       3.505 -65.129 -61.216  1.00  0.00     0.038 C 
HETATM   10  C10 UNK   900       3.351 -66.635 -61.425  1.00  0.00     0.010 C 
HETATM   11  C12 UNK   900       5.895 -65.570 -66.256  1.00  0.00     0.013 C 
HETATM   12  C13 UNK   900       4.958 -63.239 -60.460  1.00  0.00     0.046 C 
ENDROOT
BRANCH   8  13
HETATM   13  C11 UNK   900       3.600 -68.654 -62.871  1.00  0.00     0.079 C 
HETATM   14  C15 UNK   900       2.126 -68.480 -63.231  1.00  0.00     0.048 C 
BRANCH  13  15
HETATM   15  O3  UNK   900       3.663 -69.494 -61.718  1.00  0.00    -0.388 OA
HETATM   16  H27 UNK   900       4.549 -69.398 -61.327  1.00  0.00     0.210 HD
ENDBRANCH  13  15
BRANCH  13  17
HETATM   17  C14 UNK   900       4.399 -69.305 -64.004  1.00  0.00     0.201 C 
BRANCH  17  18
HETATM   18  O4  UNK   900       5.028 -70.496 -63.542  1.00  0.00    -0.398 OA
HETATM   19  H28 UNK   900       5.662 -70.771 -64.227  1.00  0.00     0.209 HD
ENDBRANCH  17  18
ENDBRANCH  13  17
ENDBRANCH   8  13
BRANCH   4  20
HETATM   20  O1  UNK   900       5.807 -65.460 -60.584  1.00  0.00    -0.390 OA
HETATM   21  H20 UNK   900       6.652 -65.482 -61.065  1.00  0.00     0.210 HD
ENDBRANCH   4  20
BRANCH   7  22
HETATM   22  O2  UNK   900       5.481 -62.492 -65.717  1.00  0.00    -0.395 OA
HETATM   23  H21 UNK   900       4.979 -62.432 -66.547  1.00  0.00     0.210 HD
ENDBRANCH   7  22
TORSDOF 6
ENDMDL
MODEL 4
REMARK VINA RESULT:      -5.1     31.036     33.089
REMARK  6 active torsions:
REMARK  status: ('A' for Active; 'I' for Inactive)
REMARK    1  A    between atoms: O1_1  and  C4_8 
REMARK    2  A    between atoms: O2_2  and  C7_11 
REMARK    3  A    between atoms: O3_3  and  C11_15 
REMARK    4  A    between atoms: O4_4  and  C14_18 
REMARK    5  A    between atoms: C8_12  and  C11_15 
REMARK    6  A    between atoms: C11_15  and  C14_18 
ROOT
HETATM    1  C1  UNK   900       7.667 -48.560 -73.879  1.00  0.00    -0.001 C 
HETATM    2  C2  UNK   900       8.724 -48.897 -72.805  1.00  0.00     0.026 C 
HETATM    3  C3  UNK   900       6.962 -47.357 -73.209  1.00  0.00     0.015 C 
HETATM    4  C4  UNK   900       9.546 -50.201 -72.942  1.00  0.00     0.058 C 
HETATM    5  C5  UNK   900       6.710 -49.701 -74.270  1.00  0.00     0.013 C 
HETATM    6  C6  UNK   900       7.995 -48.699 -71.457  1.00  0.00     0.040 C 
HETATM    7  C7  UNK   900       6.789 -47.802 -71.756  1.00  0.00     0.122 C 
HETATM    8  C8  UNK   900       7.403 -50.797 -75.093  1.00  0.00     0.022 C 
HETATM    9  C9  UNK   900       8.707 -51.490 -72.930  1.00  0.00     0.038 C 
HETATM   10  C10 UNK   900       8.036 -51.901 -74.240  1.00  0.00     0.010 C 
HETATM   11  C12 UNK   900       5.659 -46.887 -73.841  1.00  0.00     0.013 C 
HETATM   12  C13 UNK   900      10.586 -50.279 -71.808  1.00  0.00     0.046 C 
ENDROOT
BRANCH   8  13
HETATM   13  C11 UNK   900       6.411 -51.435 -76.076  1.00  0.00     0.079 C 
HETATM   14  C15 UNK   900       4.979 -51.068 -75.689  1.00  0.00     0.048 C 
BRANCH  13  15
HETATM   15  O3  UNK   900       6.534 -52.853 -75.966  1.00  0.00    -0.388 OA
HETATM   16  H27 UNK   900       7.060 -53.166 -76.722  1.00  0.00     0.210 HD
ENDBRANCH  13  15
BRANCH  13  17
HETATM   17  C14 UNK   900       6.747 -51.016 -77.511  1.00  0.00     0.201 C 
BRANCH  17  18
HETATM   18  O4  UNK   900       8.146 -50.791 -77.642  1.00  0.00    -0.398 OA
HETATM   19  H28 UNK   900       8.320 -50.599 -78.580  1.00  0.00     0.209 HD
ENDBRANCH  17  18
ENDBRANCH  13  17
ENDBRANCH   8  13
BRANCH   4  20
HETATM   20  O1  UNK   900      10.286 -50.154 -74.167  1.00  0.00    -0.390 OA
HETATM   21  H20 UNK   900       9.944 -50.849 -74.755  1.00  0.00     0.210 HD
ENDBRANCH   4  20
BRANCH   7  22
HETATM   22  O2  UNK   900       6.756 -46.676 -70.894  1.00  0.00    -0.395 OA
HETATM   23  H21 UNK   900       6.492 -46.992 -70.013  1.00  0.00     0.210 HD
ENDBRANCH   7  22
TORSDOF 6
ENDMDL
MODEL 5
REMARK VINA RESULT:      -5.0     30.668     32.761
REMARK  6 active torsions:
REMARK  status: ('A' for Active; 'I' for Inactive)
REMARK    1  A    between atoms: O1_1  and  C4_8 
REMARK    2  A    between atoms: O2_2  and  C7_11 
REMARK    3  A    between atoms: O3_3  and  C11_15 
REMARK    4  A    between atoms: O4_4  and  C14_18 
REMARK    5  A    between atoms: C8_12  and  C11_15 
REMARK    6  A    between atoms: C11_15  and  C14_18 
ROOT
HETATM    1  C1  UNK   900       9.062 -49.964 -73.341  1.00  0.00    -0.001 C 
HETATM    2  C2  UNK   900       8.577 -51.014 -74.365  1.00  0.00     0.026 C 
HETATM    3  C3  UNK   900      10.303 -50.688 -72.767  1.00  0.00     0.015 C 
HETATM    4  C4  UNK   900       7.203 -50.817 -75.049  1.00  0.00     0.058 C 
HETATM    5  C5  UNK   900       8.040 -49.541 -72.270  1.00  0.00     0.013 C 
HETATM    6  C6  UNK   900       8.795 -52.375 -73.669  1.00  0.00     0.040 C 
HETATM    7  C7  UNK   900       9.821 -52.125 -72.560  1.00  0.00     0.122 C 
HETATM    8  C8  UNK   900       6.913 -48.668 -72.841  1.00  0.00     0.022 C 
HETATM    9  C9  UNK   900       6.007 -50.789 -74.083  1.00  0.00     0.038 C 
HETATM   10  C10 UNK   900       5.717 -49.471 -73.364  1.00  0.00     0.010 C 
HETATM   11  C12 UNK   900      10.928 -50.089 -71.514  1.00  0.00     0.013 C 
HETATM   12  C13 UNK   900       6.975 -51.936 -76.083  1.00  0.00     0.046 C 
ENDROOT
BRANCH   8  13
HETATM   13  C11 UNK   900       6.419 -47.673 -71.782  1.00  0.00     0.079 C 
HETATM   14  C15 UNK   900       6.622 -46.241 -72.273  1.00  0.00     0.048 C 
BRANCH  13  15
HETATM   15  O3  UNK   900       7.219 -47.843 -70.612  1.00  0.00    -0.388 OA
HETATM   16  H27 UNK   900       7.746 -48.653 -70.726  1.00  0.00     0.210 HD
ENDBRANCH  13  15
BRANCH  13  17
HETATM   17  C14 UNK   900       4.956 -47.961 -71.430  1.00  0.00     0.201 C 
BRANCH  17  18
HETATM   18  O4  UNK   900       4.689 -47.576 -70.086  1.00  0.00    -0.398 OA
HETATM   19  H28 UNK   900       5.387 -46.953 -69.821  1.00  0.00     0.209 HD
ENDBRANCH  17  18
ENDBRANCH  13  17
ENDBRANCH   8  13
BRANCH   4  20
HETATM   20  O1  UNK   900       7.223 -49.587 -75.782  1.00  0.00    -0.390 OA
HETATM   21  H20 UNK   900       6.371 -49.495 -76.242  1.00  0.00     0.210 HD
ENDBRANCH   4  20
BRANCH   7  22
HETATM   22  O2  UNK   900      10.909 -53.030 -72.647  1.00  0.00    -0.395 OA
HETATM   23  H21 UNK   900      11.662 -52.544 -73.026  1.00  0.00     0.210 HD
ENDBRANCH   7  22
TORSDOF 6
ENDMDL
MODEL 6
REMARK VINA RESULT:      -5.0     44.338     46.319
REMARK  6 active torsions:
REMARK  status: ('A' for Active; 'I' for Inactive)
REMARK    1  A    between atoms: O1_1  and  C4_8 
REMARK    2  A    between atoms: O2_2  and  C7_11 
REMARK    3  A    between atoms: O3_3  and  C11_15 
REMARK    4  A    between atoms: O4_4  and  C14_18 
REMARK    5  A    between atoms: C8_12  and  C11_15 
REMARK    6  A    between atoms: C11_15  and  C14_18 
ROOT
HETATM    1  C1  UNK   900      25.112 -66.551 -66.495  1.00  0.00    -0.001 C 
HETATM    2  C2  UNK   900      23.666 -67.089 -66.429  1.00  0.00     0.026 C 
HETATM    3  C3  UNK   900      25.133 -65.984 -67.934  1.00  0.00     0.015 C 
HETATM    4  C4  UNK   900      23.242 -67.959 -65.222  1.00  0.00     0.058 C 
HETATM    5  C5  UNK   900      26.228 -67.574 -66.214  1.00  0.00     0.013 C 
HETATM    6  C6  UNK   900      23.408 -67.700 -67.824  1.00  0.00     0.040 C 
HETATM    7  C7  UNK   900      24.442 -67.069 -68.762  1.00  0.00     0.122 C 
HETATM    8  C8  UNK   900      26.297 -67.982 -64.735  1.00  0.00     0.022 C 
HETATM    9  C9  UNK   900      24.038 -69.265 -65.065  1.00  0.00     0.038 C 
HETATM   10  C10 UNK   900      25.403 -69.176 -64.384  1.00  0.00     0.010 C 
HETATM   11  C12 UNK   900      26.493 -65.590 -68.495  1.00  0.00     0.013 C 
HETATM   12  C13 UNK   900      21.744 -68.305 -65.335  1.00  0.00     0.046 C 
ENDROOT
BRANCH   8  13
HETATM   13  C11 UNK   900      27.744 -68.310 -64.339  1.00  0.00     0.079 C 
HETATM   14  C15 UNK   900      27.997 -69.811 -64.469  1.00  0.00     0.048 C 
BRANCH  13  15
HETATM   15  O3  UNK   900      27.911 -67.965 -62.963  1.00  0.00    -0.388 OA
HETATM   16  H27 UNK   900      28.811 -67.616 -62.850  1.00  0.00     0.210 HD
ENDBRANCH  13  15
BRANCH  13  17
HETATM   17  C14 UNK   900      28.721 -67.483 -65.180  1.00  0.00     0.201 C 
BRANCH  17  18
HETATM   18  O4  UNK   900      29.066 -66.283 -64.496  1.00  0.00    -0.398 OA
HETATM   19  H28 UNK   900      28.449 -66.189 -63.751  1.00  0.00     0.209 HD
ENDBRANCH  17  18
ENDBRANCH  13  17
ENDBRANCH   8  13
BRANCH   4  20
HETATM   20  O1  UNK   900      23.391 -67.191 -64.023  1.00  0.00    -0.390 OA
HETATM   21  H20 UNK   900      23.591 -67.802 -63.294  1.00  0.00     0.210 HD
ENDBRANCH   4  20
BRANCH   7  22
HETATM   22  O2  UNK   900      23.825 -66.501 -69.906  1.00  0.00    -0.395 OA
HETATM   23  H21 UNK   900      24.496 -65.966 -70.362  1.00  0.00     0.210 HD
ENDBRANCH   7  22
TORSDOF 6
ENDMDL
MODEL 7
REMARK VINA RESULT:      -5.0      2.224      5.434
REMARK  6 active torsions:
REMARK  status: ('A' for Active; 'I' for Inactive)
REMARK    1  A    between atoms: O1_1  and  C4_8 
REMARK    2  A    between atoms: O2_2  and  C7_11 
REMARK    3  A    between atoms: O3_3  and  C11_15 
REMARK    4  A    between atoms: O4_4  and  C14_18 
REMARK    5  A    between atoms: C8_12  and  C11_15 
REMARK    6  A    between atoms: C11_15  and  C14_18 
ROOT
HETATM    1  C1  UNK   900      23.867 -19.997 -73.940  1.00  0.00    -0.001 C 
HETATM    2  C2  UNK   900      23.998 -19.872 -72.406  1.00  0.00     0.026 C 
HETATM    3  C3  UNK   900      22.999 -18.754 -74.247  1.00  0.00     0.015 C 
HETATM    4  C4  UNK   900      24.619 -21.042 -71.607  1.00  0.00     0.058 C 
HETATM    5  C5  UNK   900      23.271 -21.316 -74.463  1.00  0.00     0.013 C 
HETATM    6  C6  UNK   900      22.609 -19.392 -71.929  1.00  0.00     0.040 C 
HETATM    7  C7  UNK   900      21.926 -18.782 -73.157  1.00  0.00     0.122 C 
HETATM    8  C8  UNK   900      24.234 -22.502 -74.307  1.00  0.00     0.022 C 
HETATM    9  C9  UNK   900      23.852 -22.371 -71.719  1.00  0.00     0.038 C 
HETATM   10  C10 UNK   900      24.108 -23.224 -72.961  1.00  0.00     0.010 C 
HETATM   11  C12 UNK   900      22.413 -18.658 -75.650  1.00  0.00     0.013 C 
HETATM   12  C13 UNK   900      24.720 -20.656 -70.118  1.00  0.00     0.046 C 
ENDROOT
BRANCH   8  13
HETATM   13  C11 UNK   900      24.018 -23.518 -75.438  1.00  0.00     0.079 C 
HETATM   14  C15 UNK   900      25.351 -24.144 -75.843  1.00  0.00     0.048 C 
BRANCH  13  15
HETATM   15  O3  UNK   900      23.513 -22.812 -76.572  1.00  0.00    -0.388 OA
HETATM   16  H27 UNK   900      23.695 -23.348 -77.363  1.00  0.00     0.210 HD
ENDBRANCH  13  15
BRANCH  13  17
HETATM   17  C14 UNK   900      22.990 -24.571 -75.011  1.00  0.00     0.201 C 
BRANCH  17  18
HETATM   18  O4  UNK   900      22.600 -25.360 -76.130  1.00  0.00    -0.398 OA
HETATM   19  H28 UNK   900      23.055 -24.998 -76.910  1.00  0.00     0.209 HD
ENDBRANCH  17  18
ENDBRANCH  13  17
ENDBRANCH   8  13
BRANCH   4  20
HETATM   20  O1  UNK   900      25.960 -21.253 -72.062  1.00  0.00    -0.390 OA
HETATM   21  H20 UNK   900      26.565 -21.034 -71.332  1.00  0.00     0.210 HD
ENDBRANCH   4  20
BRANCH   7  22
HETATM   22  O2  UNK   900      21.457 -17.471 -72.891  1.00  0.00    -0.395 OA
HETATM   23  H21 UNK   900      20.574 -17.553 -72.493  1.00  0.00     0.210 HD
ENDBRANCH   7  22
TORSDOF 6
ENDMDL
MODEL 8
REMARK VINA RESULT:      -5.0     24.574     27.928
REMARK  6 active torsions:
REMARK  status: ('A' for Active; 'I' for Inactive)
REMARK    1  A    between atoms: O1_1  and  C4_8 
REMARK    2  A    between atoms: O2_2  and  C7_11 
REMARK    3  A    between atoms: O3_3  and  C11_15 
REMARK    4  A    between atoms: O4_4  and  C14_18 
REMARK    5  A    between atoms: C8_12  and  C11_15 
REMARK    6  A    between atoms: C11_15  and  C14_18 
ROOT
HETATM    1  C1  UNK   900      22.510 -31.585 -46.861  1.00  0.00    -0.001 C 
HETATM    2  C2  UNK   900      22.906 -32.882 -47.601  1.00  0.00     0.026 C 
HETATM    3  C3  UNK   900      21.976 -32.174 -45.533  1.00  0.00     0.015 C 
HETATM    4  C4  UNK   900      23.300 -32.803 -49.095  1.00  0.00     0.058 C 
HETATM    5  C5  UNK   900      21.502 -30.673 -47.585  1.00  0.00     0.013 C 
HETATM    6  C6  UNK   900      21.792 -33.893 -47.249  1.00  0.00     0.040 C 
HETATM    7  C7  UNK   900      21.120 -33.359 -45.981  1.00  0.00     0.122 C 
HETATM    8  C8  UNK   900      22.117 -29.960 -48.798  1.00  0.00     0.022 C 
HETATM    9  C9  UNK   900      22.192 -32.275 -50.022  1.00  0.00     0.038 C 
HETATM   10  C10 UNK   900      22.010 -30.759 -50.101  1.00  0.00     0.010 C 
HETATM   11  C12 UNK   900      21.228 -31.219 -44.612  1.00  0.00     0.013 C 
HETATM   12  C13 UNK   900      23.732 -34.197 -49.589  1.00  0.00     0.046 C 
ENDROOT
BRANCH   8  13
HETATM   13  C11 UNK   900      21.459 -28.587 -49.001  1.00  0.00     0.079 C 
HETATM   14  C15 UNK   900      22.043 -27.575 -48.018  1.00  0.00     0.048 C 
BRANCH  13  15
HETATM   15  O3  UNK   900      20.068 -28.719 -48.705  1.00  0.00    -0.388 OA
HETATM   16  H27 UNK   900      19.716 -29.450 -49.241  1.00  0.00     0.210 HD
ENDBRANCH  13  15
BRANCH  13  17
HETATM   17  C14 UNK   900      21.616 -28.138 -50.457  1.00  0.00     0.201 C 
BRANCH  17  18
HETATM   18  O4  UNK   900      20.439 -27.468 -50.895  1.00  0.00    -0.398 OA
HETATM   19  H28 UNK   900      19.782 -27.545 -50.182  1.00  0.00     0.209 HD
ENDBRANCH  17  18
ENDBRANCH  13  17
ENDBRANCH   8  13
BRANCH   4  20
HETATM   20  O1  UNK   900      24.445 -31.954 -49.227  1.00  0.00    -0.390 OA
HETATM   21  H20 UNK   900      25.195 -32.499 -49.522  1.00  0.00     0.210 HD
ENDBRANCH   4  20
BRANCH   7  22
HETATM   22  O2  UNK   900      21.073 -34.348 -44.965  1.00  0.00    -0.395 OA
HETATM   23  H21 UNK   900      20.436 -35.026 -45.247  1.00  0.00     0.210 HD
ENDBRANCH   7  22
TORSDOF 6
ENDMDL
MODEL 9
REMARK VINA RESULT:      -5.0     33.106     34.897
REMARK  6 active torsions:
REMARK  status: ('A' for Active; 'I' for Inactive)
REMARK    1  A    between atoms: O1_1  and  C4_8 
REMARK    2  A    between atoms: O2_2  and  C7_11 
REMARK    3  A    between atoms: O3_3  and  C11_15 
REMARK    4  A    between atoms: O4_4  and  C14_18 
REMARK    5  A    between atoms: C8_12  and  C11_15 
REMARK    6  A    between atoms: C11_15  and  C14_18 
ROOT
HETATM    1  C1  UNK   900      10.164 -43.767 -95.303  1.00  0.00    -0.001 C 
HETATM    2  C2  UNK   900      10.284 -45.306 -95.339  1.00  0.00     0.026 C 
HETATM    3  C3  UNK   900       9.018 -43.601 -94.276  1.00  0.00     0.015 C 
HETATM    4  C4  UNK   900      11.180 -45.964 -96.415  1.00  0.00     0.058 C 
HETATM    5  C5  UNK   900       9.893 -43.077 -96.652  1.00  0.00     0.013 C 
HETATM    6  C6  UNK   900       8.828 -45.818 -95.268  1.00  0.00     0.040 C 
HETATM    7  C7  UNK   900       8.000 -44.664 -94.694  1.00  0.00     0.122 C 
HETATM    8  C8  UNK   900      11.114 -43.100 -97.583  1.00  0.00     0.022 C 
HETATM    9  C9  UNK   900      10.752 -45.679 -97.864  1.00  0.00     0.038 C 
HETATM   10  C10 UNK   900      11.186 -44.345 -98.472  1.00  0.00     0.010 C 
HETATM   11  C12 UNK   900       8.404 -42.213 -94.152  1.00  0.00     0.013 C 
HETATM   12  C13 UNK   900      11.208 -47.490 -96.201  1.00  0.00     0.046 C 
ENDROOT
BRANCH   8  13
HETATM   13  C11 UNK   900      11.130 -41.850 -98.474  1.00  0.00     0.079 C 
HETATM   14  C15 UNK   900      11.154 -42.255 -99.946  1.00  0.00     0.048 C 
BRANCH  13  15
HETATM   15  O3  UNK   900      12.337 -41.136 -98.206  1.00  0.00    -0.388 OA
HETATM   16  H27 UNK   900      12.109 -40.198 -98.084  1.00  0.00     0.210 HD
ENDBRANCH  13  15
BRANCH  13  17
HETATM   17  C14 UNK   900       9.936 -40.950 -98.141  1.00  0.00     0.201 C 
BRANCH  17  18
HETATM   18  O4  UNK   900      10.355 -39.593 -98.045  1.00  0.00    -0.398 OA
HETATM   19  H28 UNK   900       9.585 -39.038 -98.260  1.00  0.00     0.209 HD
ENDBRANCH  17  18
ENDBRANCH  13  17
ENDBRANCH   8  13
BRANCH   4  20
HETATM   20  O1  UNK   900      12.525 -45.506 -96.240  1.00  0.00    -0.390 OA
HETATM   21  H20 UNK   900      12.494 -44.601 -95.887  1.00  0.00     0.210 HD
ENDBRANCH   4  20
BRANCH   7  22
HETATM   22  O2  UNK   900       7.234 -45.083 -93.576  1.00  0.00    -0.395 OA
HETATM   23  H21 UNK   900       6.332 -44.742 -93.698  1.00  0.00     0.210 HD
ENDBRANCH   7  22
TORSDOF 6
ENDMDL
