MODEL 1
REMARK VINA RESULT:      -8.0      0.000      0.000
REMARK  8 active torsions:
REMARK  status: ('A' for Active; 'I' for Inactive)
REMARK    1  A    between atoms: O2_2  and  C8_14 
REMARK    2  A    between atoms: O4_4  and  C7_13 
REMARK    3  A    between atoms: O5_5  and  C9_15 
REMARK    4  A    between atoms: C1_7  and  C2_8 
REMARK    5  A    between atoms: C1_7  and  C4_10 
REMARK    6  A    between atoms: C2_8  and  C3_9 
REMARK    7  A    between atoms: C4_10  and  C5_11 
REMARK    8  A    between atoms: C5_11  and  C9_15 
ROOT
HETATM    1  O1  UNK   900      20.979 -39.613 -70.726  1.00  0.00    -0.314 OA
HETATM    2  O6  UNK   900      24.778 -38.194 -71.119  1.00  0.00    -0.287 OA
HETATM    3  C3  UNK   900      23.008 -38.525 -67.259  1.00  0.00     0.010 A 
HETATM    4  C7  UNK   900      23.653 -38.388 -68.488  1.00  0.00     0.091 A 
HETATM    5  C8  UNK   900      21.704 -39.019 -67.203  1.00  0.00     0.080 A 
HETATM    6  C10 UNK   900      22.985 -38.750 -69.661  1.00  0.00     0.082 A 
HETATM    7  C11 UNK   900      21.682 -39.243 -69.606  1.00  0.00     0.095 A 
HETATM    8  C12 UNK   900      21.039 -39.378 -68.376  1.00  0.00     0.075 A 
HETATM    9  C13 UNK   900      23.640 -38.617 -70.972  1.00  0.00     0.190 A 
HETATM   10  C15 UNK   900      21.594 -39.489 -71.960  1.00  0.00     0.053 A 
HETATM   11  C16 UNK   900      22.840 -39.029 -72.142  1.00  0.00     0.088 A 
HETATM   12  C17 UNK   900      20.730 -39.923 -73.104  1.00  0.00     0.077 C 
ENDROOT
BRANCH   3  13
HETATM   13  C2  UNK   900      23.718 -38.140 -65.983  1.00  0.00     0.056 C 
BRANCH  13  14
HETATM   14  C1  UNK   900      23.151 -36.861 -65.345  1.00  0.00     0.056 C 
HETATM   15  C6  UNK   900      23.769 -36.622 -63.969  1.00  0.00     0.018 C 
BRANCH  14  16
HETATM   16  C4  UNK   900      23.420 -35.630 -66.209  1.00  0.00     0.133 C 
HETATM   17  O3  UNK   900      24.494 -35.463 -66.790  1.00  0.00    -0.297 OA
BRANCH  16  18
HETATM   18  C5  UNK   900      22.317 -34.593 -66.308  1.00  0.00     0.110 C 
BRANCH  18  19
HETATM   19  C9  UNK   900      21.904 -34.358 -67.758  1.00  0.00     0.121 C 
HETATM   20  C14 UNK   900      21.029 -35.492 -68.270  1.00  0.00     0.040 C 
BRANCH  19  21
HETATM   21  O5  UNK   900      21.163 -33.142 -67.828  1.00  0.00    -0.396 OA
HETATM   22  H16 UNK   900      20.449 -33.195 -67.169  1.00  0.00     0.210 HD
ENDBRANCH  19  21
ENDBRANCH  18  19
ENDBRANCH  16  18
ENDBRANCH  14  16
ENDBRANCH  13  14
ENDBRANCH   3  13
BRANCH   4  23
HETATM   23  O4  UNK   900      24.927 -37.902 -68.508  1.00  0.00    -0.359 OA
HETATM   24  H15 UNK   900      25.551 -38.561 -68.166  1.00  0.00     0.217 HD
ENDBRANCH   4  23
BRANCH   5  25
HETATM   25  O2  UNK   900      21.062 -39.158 -66.009  1.00  0.00    -0.355 OA
HETATM   26  C18 UNK   900      19.845 -38.435 -65.840  1.00  0.00     0.210 C 
ENDBRANCH   5  25
TORSDOF 8
ENDMDL
MODEL 2
REMARK VINA RESULT:      -7.9      1.865      2.611
REMARK  8 active torsions:
REMARK  status: ('A' for Active; 'I' for Inactive)
REMARK    1  A    between atoms: O2_2  and  C8_14 
REMARK    2  A    between atoms: O4_4  and  C7_13 
REMARK    3  A    between atoms: O5_5  and  C9_15 
REMARK    4  A    between atoms: C1_7  and  C2_8 
REMARK    5  A    between atoms: C1_7  and  C4_10 
REMARK    6  A    between atoms: C2_8  and  C3_9 
REMARK    7  A    between atoms: C4_10  and  C5_11 
REMARK    8  A    between atoms: C5_11  and  C9_15 
ROOT
HETATM    1  O1  UNK   900      19.670 -40.882 -70.363  1.00  0.00    -0.314 OA
HETATM    2  O6  UNK   900      21.935 -38.488 -72.758  1.00  0.00    -0.287 OA
HETATM    3  C3  UNK   900      22.036 -37.992 -68.529  1.00  0.00     0.010 A 
HETATM    4  C7  UNK   900      22.055 -38.095 -69.920  1.00  0.00     0.091 A 
HETATM    5  C8  UNK   900      21.233 -38.848 -67.774  1.00  0.00     0.080 A 
HETATM    6  C10 UNK   900      21.266 -39.061 -70.550  1.00  0.00     0.082 A 
HETATM    7  C11 UNK   900      20.464 -39.916 -69.797  1.00  0.00     0.095 A 
HETATM    8  C12 UNK   900      20.446 -39.811 -68.406  1.00  0.00     0.075 A 
HETATM    9  C13 UNK   900      21.266 -39.192 -72.015  1.00  0.00     0.190 A 
HETATM   10  C15 UNK   900      19.668 -41.009 -71.742  1.00  0.00     0.053 A 
HETATM   11  C16 UNK   900      20.395 -40.246 -72.572  1.00  0.00     0.088 A 
HETATM   12  C17 UNK   900      18.765 -42.094 -72.241  1.00  0.00     0.077 C 
ENDROOT
BRANCH   3  13
HETATM   13  C2  UNK   900      22.885 -36.955 -67.834  1.00  0.00     0.056 C 
BRANCH  13  14
HETATM   14  C1  UNK   900      22.066 -35.759 -67.319  1.00  0.00     0.056 C 
HETATM   15  C6  UNK   900      22.341 -35.511 -65.837  1.00  0.00     0.018 C 
BRANCH  14  16
HETATM   16  C4  UNK   900      22.393 -34.478 -68.085  1.00  0.00     0.133 C 
HETATM   17  O3  UNK   900      21.557 -33.588 -68.255  1.00  0.00    -0.297 OA
BRANCH  16  18
HETATM   18  C5  UNK   900      23.791 -34.347 -68.661  1.00  0.00     0.110 C 
BRANCH  18  19
HETATM   19  C9  UNK   900      24.660 -33.429 -67.806  1.00  0.00     0.121 C 
HETATM   20  C14 UNK   900      26.111 -33.467 -68.262  1.00  0.00     0.040 C 
BRANCH  19  21
HETATM   21  O5  UNK   900      24.176 -32.095 -67.936  1.00  0.00    -0.396 OA
HETATM   22  H16 UNK   900      23.814 -31.999 -68.834  1.00  0.00     0.210 HD
ENDBRANCH  19  21
ENDBRANCH  18  19
ENDBRANCH  16  18
ENDBRANCH  14  16
ENDBRANCH  13  14
ENDBRANCH   3  13
BRANCH   4  23
HETATM   23  O4  UNK   900      22.850 -37.243 -70.628  1.00  0.00    -0.359 OA
HETATM   24  H15 UNK   900      23.342 -37.721 -71.313  1.00  0.00     0.217 HD
ENDBRANCH   4  23
BRANCH   5  25
HETATM   25  O2  UNK   900      21.205 -38.759 -66.414  1.00  0.00    -0.355 OA
HETATM   26  C18 UNK   900      19.952 -38.444 -65.811  1.00  0.00     0.210 C 
ENDBRANCH   5  25
TORSDOF 8
ENDMDL
MODEL 3
REMARK VINA RESULT:      -7.7      1.649      2.965
REMARK  8 active torsions:
REMARK  status: ('A' for Active; 'I' for Inactive)
REMARK    1  A    between atoms: O2_2  and  C8_14 
REMARK    2  A    between atoms: O4_4  and  C7_13 
REMARK    3  A    between atoms: O5_5  and  C9_15 
REMARK    4  A    between atoms: C1_7  and  C2_8 
REMARK    5  A    between atoms: C1_7  and  C4_10 
REMARK    6  A    between atoms: C2_8  and  C3_9 
REMARK    7  A    between atoms: C4_10  and  C5_11 
REMARK    8  A    between atoms: C5_11  and  C9_15 
ROOT
HETATM    1  O1  UNK   900      22.724 -38.153 -71.463  1.00  0.00    -0.314 OA
HETATM    2  O6  UNK   900      22.006 -40.486 -68.201  1.00  0.00    -0.287 OA
HETATM    3  C3  UNK   900      24.454 -37.018 -67.853  1.00  0.00     0.010 A 
HETATM    4  C7  UNK   900      23.664 -38.167 -67.890  1.00  0.00     0.091 A 
HETATM    5  C8  UNK   900      24.655 -36.268 -69.013  1.00  0.00     0.080 A 
HETATM    6  C10 UNK   900      23.076 -38.560 -69.094  1.00  0.00     0.082 A 
HETATM    7  C11 UNK   900      23.277 -37.813 -70.254  1.00  0.00     0.095 A 
HETATM    8  C12 UNK   900      24.067 -36.665 -70.215  1.00  0.00     0.075 A 
HETATM    9  C13 UNK   900      22.239 -39.768 -69.163  1.00  0.00     0.190 A 
HETATM   10  C15 UNK   900      21.935 -39.289 -71.531  1.00  0.00     0.053 A 
HETATM   11  C16 UNK   900      21.669 -40.088 -70.487  1.00  0.00     0.088 A 
HETATM   12  C17 UNK   900      21.390 -39.557 -72.899  1.00  0.00     0.077 C 
ENDROOT
BRANCH   3  13
HETATM   13  C2  UNK   900      25.094 -36.578 -66.558  1.00  0.00     0.056 C 
BRANCH  13  14
HETATM   14  C1  UNK   900      24.078 -36.018 -65.548  1.00  0.00     0.056 C 
HETATM   15  C6  UNK   900      24.708 -35.883 -64.163  1.00  0.00     0.018 C 
BRANCH  14  16
HETATM   16  C4  UNK   900      23.558 -34.645 -65.972  1.00  0.00     0.133 C 
HETATM   17  O3  UNK   900      24.301 -33.667 -66.068  1.00  0.00    -0.297 OA
BRANCH  16  18
HETATM   18  C5  UNK   900      22.071 -34.518 -66.248  1.00  0.00     0.110 C 
BRANCH  18  19
HETATM   19  C9  UNK   900      21.800 -34.262 -67.728  1.00  0.00     0.121 C 
HETATM   20  C14 UNK   900      20.957 -35.375 -68.332  1.00  0.00     0.040 C 
BRANCH  19  21
HETATM   21  O5  UNK   900      21.091 -33.032 -67.854  1.00  0.00    -0.396 OA
HETATM   22  H16 UNK   900      20.297 -33.204 -68.389  1.00  0.00     0.210 HD
ENDBRANCH  19  21
ENDBRANCH  18  19
ENDBRANCH  16  18
ENDBRANCH  14  16
ENDBRANCH  13  14
ENDBRANCH   3  13
BRANCH   4  23
HETATM   23  O4  UNK   900      23.488 -38.876 -66.738  1.00  0.00    -0.359 OA
HETATM   24  H15 UNK   900      23.731 -39.806 -66.867  1.00  0.00     0.217 HD
ENDBRANCH   4  23
BRANCH   5  25
HETATM   25  O2  UNK   900      25.424 -35.143 -68.992  1.00  0.00    -0.355 OA
HETATM   26  C18 UNK   900      24.827 -33.942 -69.477  1.00  0.00     0.210 C 
ENDBRANCH   5  25
TORSDOF 8
ENDMDL
MODEL 4
REMARK VINA RESULT:      -7.3      2.268      3.161
REMARK  8 active torsions:
REMARK  status: ('A' for Active; 'I' for Inactive)
REMARK    1  A    between atoms: O2_2  and  C8_14 
REMARK    2  A    between atoms: O4_4  and  C7_13 
REMARK    3  A    between atoms: O5_5  and  C9_15 
REMARK    4  A    between atoms: C1_7  and  C2_8 
REMARK    5  A    between atoms: C1_7  and  C4_10 
REMARK    6  A    between atoms: C2_8  and  C3_9 
REMARK    7  A    between atoms: C4_10  and  C5_11 
REMARK    8  A    between atoms: C5_11  and  C9_15 
ROOT
HETATM    1  O1  UNK   900      20.552 -39.360 -69.521  1.00  0.00    -0.314 OA
HETATM    2  O6  UNK   900      23.131 -41.886 -67.632  1.00  0.00    -0.287 OA
HETATM    3  C3  UNK   900      22.825 -37.822 -66.394  1.00  0.00     0.010 A 
HETATM    4  C7  UNK   900      22.980 -39.164 -66.743  1.00  0.00     0.091 A 
HETATM    5  C8  UNK   900      21.921 -37.017 -67.088  1.00  0.00     0.080 A 
HETATM    6  C10 UNK   900      22.224 -39.694 -67.790  1.00  0.00     0.082 A 
HETATM    7  C11 UNK   900      21.320 -38.892 -68.485  1.00  0.00     0.095 A 
HETATM    8  C12 UNK   900      21.167 -37.550 -68.134  1.00  0.00     0.075 A 
HETATM    9  C13 UNK   900      22.366 -41.106 -68.181  1.00  0.00     0.190 A 
HETATM   10  C15 UNK   900      20.683 -40.689 -69.890  1.00  0.00     0.053 A 
HETATM   11  C16 UNK   900      21.516 -41.558 -69.300  1.00  0.00     0.088 A 
HETATM   12  C17 UNK   900      19.796 -41.082 -71.029  1.00  0.00     0.077 C 
ENDROOT
BRANCH   3  13
HETATM   13  C2  UNK   900      23.635 -37.235 -65.262  1.00  0.00     0.056 C 
BRANCH  13  14
HETATM   14  C1  UNK   900      24.348 -35.929 -65.652  1.00  0.00     0.056 C 
HETATM   15  C6  UNK   900      24.603 -35.062 -64.420  1.00  0.00     0.018 C 
BRANCH  14  16
HETATM   16  C4  UNK   900      25.690 -36.199 -66.331  1.00  0.00     0.133 C 
HETATM   17  O3  UNK   900      26.749 -36.212 -65.701  1.00  0.00    -0.297 OA
BRANCH  16  18
HETATM   18  C5  UNK   900      25.679 -36.427 -67.831  1.00  0.00     0.110 C 
BRANCH  18  19
HETATM   19  C9  UNK   900      26.064 -35.159 -68.589  1.00  0.00     0.121 C 
HETATM   20  C14 UNK   900      24.888 -34.623 -69.393  1.00  0.00     0.040 C 
BRANCH  19  21
HETATM   21  O5  UNK   900      26.459 -34.168 -67.643  1.00  0.00    -0.396 OA
HETATM   22  H16 UNK   900      27.045 -33.541 -68.102  1.00  0.00     0.210 HD
ENDBRANCH  19  21
ENDBRANCH  18  19
ENDBRANCH  16  18
ENDBRANCH  14  16
ENDBRANCH  13  14
ENDBRANCH   3  13
BRANCH   4  23
HETATM   23  O4  UNK   900      23.873 -39.922 -66.044  1.00  0.00    -0.359 OA
HETATM   24  H15 UNK   900      24.083 -40.736 -66.527  1.00  0.00     0.217 HD
ENDBRANCH   4  23
BRANCH   5  25
HETATM   25  O2  UNK   900      21.759 -35.704 -66.757  1.00  0.00    -0.355 OA
HETATM   26  C18 UNK   900      21.527 -34.791 -67.827  1.00  0.00     0.210 C 
ENDBRANCH   5  25
TORSDOF 8
ENDMDL
MODEL 5
REMARK VINA RESULT:      -6.9      2.072      2.644
REMARK  8 active torsions:
REMARK  status: ('A' for Active; 'I' for Inactive)
REMARK    1  A    between atoms: O2_2  and  C8_14 
REMARK    2  A    between atoms: O4_4  and  C7_13 
REMARK    3  A    between atoms: O5_5  and  C9_15 
REMARK    4  A    between atoms: C1_7  and  C2_8 
REMARK    5  A    between atoms: C1_7  and  C4_10 
REMARK    6  A    between atoms: C2_8  and  C3_9 
REMARK    7  A    between atoms: C4_10  and  C5_11 
REMARK    8  A    between atoms: C5_11  and  C9_15 
ROOT
HETATM    1  O1  UNK   900      20.632 -41.546 -69.193  1.00  0.00    -0.314 OA
HETATM    2  O6  UNK   900      21.248 -38.746 -72.087  1.00  0.00    -0.287 OA
HETATM    3  C3  UNK   900      23.573 -38.681 -68.519  1.00  0.00     0.010 A 
HETATM    4  C7  UNK   900      22.852 -38.638 -69.712  1.00  0.00     0.091 A 
HETATM    5  C8  UNK   900      23.305 -39.672 -67.572  1.00  0.00     0.080 A 
HETATM    6  C10 UNK   900      21.862 -39.594 -69.952  1.00  0.00     0.082 A 
HETATM    7  C11 UNK   900      21.593 -40.584 -69.008  1.00  0.00     0.095 A 
HETATM    8  C12 UNK   900      22.315 -40.624 -67.816  1.00  0.00     0.075 A 
HETATM    9  C13 UNK   900      21.085 -39.574 -71.202  1.00  0.00     0.190 A 
HETATM   10  C15 UNK   900      19.900 -41.530 -70.368  1.00  0.00     0.053 A 
HETATM   11  C16 UNK   900      20.065 -40.631 -71.349  1.00  0.00     0.088 A 
HETATM   12  C17 UNK   900      18.884 -42.626 -70.454  1.00  0.00     0.077 C 
ENDROOT
BRANCH   3  13
HETATM   13  C2  UNK   900      24.648 -37.656 -68.245  1.00  0.00     0.056 C 
BRANCH  13  14
HETATM   14  C1  UNK   900      24.382 -36.835 -66.973  1.00  0.00     0.056 C 
HETATM   15  C6  UNK   900      25.579 -35.947 -66.640  1.00  0.00     0.018 C 
BRANCH  14  16
HETATM   16  C4  UNK   900      23.152 -35.940 -67.124  1.00  0.00     0.133 C 
HETATM   17  O3  UNK   900      22.010 -36.365 -66.943  1.00  0.00    -0.297 OA
BRANCH  16  18
HETATM   18  C5  UNK   900      23.386 -34.498 -67.537  1.00  0.00     0.110 C 
BRANCH  18  19
HETATM   19  C9  UNK   900      23.042 -34.279 -69.007  1.00  0.00     0.121 C 
HETATM   20  C14 UNK   900      24.279 -34.402 -69.884  1.00  0.00     0.040 C 
BRANCH  19  21
HETATM   21  O5  UNK   900      22.099 -35.271 -69.406  1.00  0.00    -0.396 OA
HETATM   22  H16 UNK   900      21.669 -35.608 -68.601  1.00  0.00     0.210 HD
ENDBRANCH  19  21
ENDBRANCH  18  19
ENDBRANCH  16  18
ENDBRANCH  14  16
ENDBRANCH  13  14
ENDBRANCH   3  13
BRANCH   4  23
HETATM   23  O4  UNK   900      23.138 -37.657 -70.615  1.00  0.00    -0.359 OA
HETATM   24  H15 UNK   900      23.389 -38.039 -71.469  1.00  0.00     0.217 HD
ENDBRANCH   4  23
BRANCH   5  25
HETATM   25  O2  UNK   900      24.003 -39.725 -66.403  1.00  0.00    -0.355 OA
HETATM   26  C18 UNK   900      23.268 -39.506 -65.201  1.00  0.00     0.210 C 
ENDBRANCH   5  25
TORSDOF 8
ENDMDL
MODEL 6
REMARK VINA RESULT:      -5.8     37.093     39.496
REMARK  8 active torsions:
REMARK  status: ('A' for Active; 'I' for Inactive)
REMARK    1  A    between atoms: O2_2  and  C8_14 
REMARK    2  A    between atoms: O4_4  and  C7_13 
REMARK    3  A    between atoms: O5_5  and  C9_15 
REMARK    4  A    between atoms: C1_7  and  C2_8 
REMARK    5  A    between atoms: C1_7  and  C4_10 
REMARK    6  A    between atoms: C2_8  and  C3_9 
REMARK    7  A    between atoms: C4_10  and  C5_11 
REMARK    8  A    between atoms: C5_11  and  C9_15 
ROOT
HETATM    1  O1  UNK   900       2.130 -70.487 -52.826  1.00  0.00    -0.314 OA
HETATM    2  O6  UNK   900       5.948 -71.192 -54.061  1.00  0.00    -0.287 OA
HETATM    3  C3  UNK   900       5.033 -67.673 -51.843  1.00  0.00     0.010 A 
HETATM    4  C7  UNK   900       5.408 -68.801 -52.572  1.00  0.00     0.091 A 
HETATM    5  C8  UNK   900       3.704 -67.499 -51.454  1.00  0.00     0.080 A 
HETATM    6  C10 UNK   900       4.445 -69.755 -52.909  1.00  0.00     0.082 A 
HETATM    7  C11 UNK   900       3.117 -69.583 -52.522  1.00  0.00     0.095 A 
HETATM    8  C12 UNK   900       2.744 -68.454 -51.793  1.00  0.00     0.075 A 
HETATM    9  C13 UNK   900       4.811 -70.955 -53.678  1.00  0.00     0.190 A 
HETATM   10  C15 UNK   900       2.472 -71.618 -53.549  1.00  0.00     0.053 A 
HETATM   11  C16 UNK   900       3.712 -71.894 -53.977  1.00  0.00     0.088 A 
HETATM   12  C17 UNK   900       1.314 -72.527 -53.819  1.00  0.00     0.077 C 
ENDROOT
BRANCH   3  13
HETATM   13  C2  UNK   900       6.064 -66.635 -51.469  1.00  0.00     0.056 C 
BRANCH  13  14
HETATM   14  C1  UNK   900       6.978 -67.087 -50.318  1.00  0.00     0.056 C 
HETATM   15  C6  UNK   900       8.410 -66.601 -50.541  1.00  0.00     0.018 C 
BRANCH  14  16
HETATM   16  C4  UNK   900       6.498 -66.552 -48.970  1.00  0.00     0.133 C 
HETATM   17  O3  UNK   900       6.511 -65.350 -48.703  1.00  0.00    -0.297 OA
BRANCH  16  18
HETATM   18  C5  UNK   900       6.023 -67.567 -47.947  1.00  0.00     0.110 C 
BRANCH  18  19
HETATM   19  C9  UNK   900       7.096 -67.842 -46.897  1.00  0.00     0.121 C 
HETATM   20  C14 UNK   900       7.968 -69.022 -47.300  1.00  0.00     0.040 C 
BRANCH  19  21
HETATM   21  O5  UNK   900       7.920 -66.685 -46.777  1.00  0.00    -0.396 OA
HETATM   22  H16 UNK   900       7.655 -66.219 -45.965  1.00  0.00     0.210 HD
ENDBRANCH  19  21
ENDBRANCH  18  19
ENDBRANCH  16  18
ENDBRANCH  14  16
ENDBRANCH  13  14
ENDBRANCH   3  13
BRANCH   4  23
HETATM   23  O4  UNK   900       6.715 -68.940 -52.936  1.00  0.00    -0.359 OA
HETATM   24  H15 UNK   900       6.793 -69.065 -53.894  1.00  0.00     0.217 HD
ENDBRANCH   4  23
BRANCH   5  25
HETATM   25  O2  UNK   900       3.323 -66.402 -50.741  1.00  0.00    -0.355 OA
HETATM   26  C18 UNK   900       2.450 -65.480 -51.389  1.00  0.00     0.210 C 
ENDBRANCH   5  25
TORSDOF 8
ENDMDL
MODEL 7
REMARK VINA RESULT:      -5.4     15.515     18.234
REMARK  8 active torsions:
REMARK  status: ('A' for Active; 'I' for Inactive)
REMARK    1  A    between atoms: O2_2  and  C8_14 
REMARK    2  A    between atoms: O4_4  and  C7_13 
REMARK    3  A    between atoms: O5_5  and  C9_15 
REMARK    4  A    between atoms: C1_7  and  C2_8 
REMARK    5  A    between atoms: C1_7  and  C4_10 
REMARK    6  A    between atoms: C2_8  and  C3_9 
REMARK    7  A    between atoms: C4_10  and  C5_11 
REMARK    8  A    between atoms: C5_11  and  C9_15 
ROOT
HETATM    1  O1  UNK   900      25.774 -18.569 -70.791  1.00  0.00    -0.314 OA
HETATM    2  O6  UNK   900      22.703 -21.062 -69.816  1.00  0.00    -0.287 OA
HETATM    3  C3  UNK   900      25.480 -22.174 -72.848  1.00  0.00     0.010 A 
HETATM    4  C7  UNK   900      24.533 -21.879 -71.867  1.00  0.00     0.091 A 
HETATM    5  C8  UNK   900      26.506 -21.270 -73.128  1.00  0.00     0.080 A 
HETATM    6  C10 UNK   900      24.619 -20.673 -71.168  1.00  0.00     0.082 A 
HETATM    7  C11 UNK   900      25.642 -19.768 -71.447  1.00  0.00     0.095 A 
HETATM    8  C12 UNK   900      26.588 -20.066 -72.427  1.00  0.00     0.075 A 
HETATM    9  C13 UNK   900      23.634 -20.334 -70.129  1.00  0.00     0.190 A 
HETATM   10  C15 UNK   900      24.849 -18.248 -69.812  1.00  0.00     0.053 A 
HETATM   11  C16 UNK   900      23.822 -19.034 -69.455  1.00  0.00     0.088 A 
HETATM   12  C17 UNK   900      25.096 -16.919 -69.169  1.00  0.00     0.077 C 
ENDROOT
BRANCH   3  13
HETATM   13  C2  UNK   900      25.402 -23.476 -73.610  1.00  0.00     0.056 C 
BRANCH  13  14
HETATM   14  C1  UNK   900      24.847 -23.302 -75.034  1.00  0.00     0.056 C 
HETATM   15  C6  UNK   900      25.673 -24.102 -76.039  1.00  0.00     0.018 C 
BRANCH  14  16
HETATM   16  C4  UNK   900      23.394 -23.764 -75.136  1.00  0.00     0.133 C 
HETATM   17  O3  UNK   900      23.098 -24.941 -75.348  1.00  0.00    -0.297 OA
BRANCH  16  18
HETATM   18  C5  UNK   900      22.314 -22.707 -74.991  1.00  0.00     0.110 C 
BRANCH  18  19
HETATM   19  C9  UNK   900      22.890 -21.302 -75.136  1.00  0.00     0.121 C 
HETATM   20  C14 UNK   900      22.652 -20.753 -76.536  1.00  0.00     0.040 C 
BRANCH  19  21
HETATM   21  O5  UNK   900      22.244 -20.447 -74.195  1.00  0.00    -0.396 OA
HETATM   22  H16 UNK   900      21.405 -20.156 -74.591  1.00  0.00     0.210 HD
ENDBRANCH  19  21
ENDBRANCH  18  19
ENDBRANCH  16  18
ENDBRANCH  14  16
ENDBRANCH  13  14
ENDBRANCH   3  13
BRANCH   4  23
HETATM   23  O4  UNK   900      23.544 -22.785 -71.619  1.00  0.00    -0.359 OA
HETATM   24  H15 UNK   900      23.562 -23.500 -72.274  1.00  0.00     0.217 HD
ENDBRANCH   4  23
BRANCH   5  25
HETATM   25  O2  UNK   900      27.438 -21.546 -74.082  1.00  0.00    -0.355 OA
HETATM   26  C18 UNK   900      27.823 -20.474 -74.940  1.00  0.00     0.210 C 
ENDBRANCH   5  25
TORSDOF 8
ENDMDL
MODEL 8
REMARK VINA RESULT:      -5.4     37.884     39.513
REMARK  8 active torsions:
REMARK  status: ('A' for Active; 'I' for Inactive)
REMARK    1  A    between atoms: O2_2  and  C8_14 
REMARK    2  A    between atoms: O4_4  and  C7_13 
REMARK    3  A    between atoms: O5_5  and  C9_15 
REMARK    4  A    between atoms: C1_7  and  C2_8 
REMARK    5  A    between atoms: C1_7  and  C4_10 
REMARK    6  A    between atoms: C2_8  and  C3_9 
REMARK    7  A    between atoms: C4_10  and  C5_11 
REMARK    8  A    between atoms: C5_11  and  C9_15 
ROOT
HETATM    1  O1  UNK   900       6.537 -67.780 -50.975  1.00  0.00    -0.314 OA
HETATM    2  O6  UNK   900       6.230 -66.022 -47.312  1.00  0.00    -0.287 OA
HETATM    3  C3  UNK   900       2.750 -66.626 -49.693  1.00  0.00     0.010 A 
HETATM    4  C7  UNK   900       3.844 -66.395 -48.858  1.00  0.00     0.091 A 
HETATM    5  C8  UNK   900       2.934 -67.234 -50.936  1.00  0.00     0.080 A 
HETATM    6  C10 UNK   900       5.121 -66.778 -49.274  1.00  0.00     0.082 A 
HETATM    7  C11 UNK   900       5.306 -67.385 -50.516  1.00  0.00     0.095 A 
HETATM    8  C12 UNK   900       4.211 -67.614 -51.349  1.00  0.00     0.075 A 
HETATM    9  C13 UNK   900       6.293 -66.547 -48.415  1.00  0.00     0.190 A 
HETATM   10  C15 UNK   900       7.641 -67.565 -50.167  1.00  0.00     0.053 A 
HETATM   11  C16 UNK   900       7.592 -66.991 -48.956  1.00  0.00     0.088 A 
HETATM   12  C17 UNK   900       8.926 -68.037 -50.774  1.00  0.00     0.077 C 
ENDROOT
BRANCH   3  13
HETATM   13  C2  UNK   900       1.363 -66.220 -49.255  1.00  0.00     0.056 C 
BRANCH  13  14
HETATM   14  C1  UNK   900       0.964 -64.821 -49.754  1.00  0.00     0.056 C 
HETATM   15  C6  UNK   900      -0.219 -64.906 -50.717  1.00  0.00     0.018 C 
BRANCH  14  16
HETATM   16  C4  UNK   900       0.574 -63.899 -48.600  1.00  0.00     0.133 C 
HETATM   17  O3  UNK   900       0.816 -62.691 -48.621  1.00  0.00    -0.297 OA
BRANCH  16  18
HETATM   18  C5  UNK   900      -0.106 -64.532 -47.400  1.00  0.00     0.110 C 
BRANCH  18  19
HETATM   19  C9  UNK   900       0.723 -64.349 -46.132  1.00  0.00     0.121 C 
HETATM   20  C14 UNK   900       0.882 -65.665 -45.385  1.00  0.00     0.040 C 
BRANCH  19  21
HETATM   21  O5  UNK   900       2.016 -63.873 -46.499  1.00  0.00    -0.396 OA
HETATM   22  H16 UNK   900       1.986 -62.901 -46.486  1.00  0.00     0.210 HD
ENDBRANCH  19  21
ENDBRANCH  18  19
ENDBRANCH  16  18
ENDBRANCH  14  16
ENDBRANCH  13  14
ENDBRANCH   3  13
BRANCH   4  23
HETATM   23  O4  UNK   900       3.630 -65.799 -47.650  1.00  0.00    -0.359 OA
HETATM   24  H15 UNK   900       3.645 -66.454 -46.936  1.00  0.00     0.217 HD
ENDBRANCH   4  23
BRANCH   5  25
HETATM   25  O2  UNK   900       1.874 -67.466 -51.762  1.00  0.00    -0.355 OA
HETATM   26  C18 UNK   900       1.562 -68.827 -52.046  1.00  0.00     0.210 C 
ENDBRANCH   5  25
TORSDOF 8
ENDMDL
MODEL 9
REMARK VINA RESULT:      -5.4     18.765     20.067
REMARK  8 active torsions:
REMARK  status: ('A' for Active; 'I' for Inactive)
REMARK    1  A    between atoms: O2_2  and  C8_14 
REMARK    2  A    between atoms: O4_4  and  C7_13 
REMARK    3  A    between atoms: O5_5  and  C9_15 
REMARK    4  A    between atoms: C1_7  and  C2_8 
REMARK    5  A    between atoms: C1_7  and  C4_10 
REMARK    6  A    between atoms: C2_8  and  C3_9 
REMARK    7  A    between atoms: C4_10  and  C5_11 
REMARK    8  A    between atoms: C5_11  and  C9_15 
ROOT
HETATM    1  O1  UNK   900      24.162 -31.429 -50.188  1.00  0.00    -0.314 OA
HETATM    2  O6  UNK   900      20.809 -29.116 -50.218  1.00  0.00    -0.287 OA
HETATM    3  C3  UNK   900      24.559 -27.461 -51.376  1.00  0.00     0.010 A 
HETATM    4  C7  UNK   900      23.298 -27.932 -51.011  1.00  0.00     0.091 A 
HETATM    5  C8  UNK   900      25.664 -28.314 -51.340  1.00  0.00     0.080 A 
HETATM    6  C10 UNK   900      23.149 -29.262 -50.610  1.00  0.00     0.082 A 
HETATM    7  C11 UNK   900      24.251 -30.115 -50.574  1.00  0.00     0.095 A 
HETATM    8  C12 UNK   900      25.511 -29.641 -50.939  1.00  0.00     0.075 A 
HETATM    9  C13 UNK   900      21.831 -29.786 -50.219  1.00  0.00     0.190 A 
HETATM   10  C15 UNK   900      22.923 -31.926 -49.821  1.00  0.00     0.053 A 
HETATM   11  C16 UNK   900      21.792 -31.205 -49.814  1.00  0.00     0.088 A 
HETATM   12  C17 UNK   900      22.952 -33.368 -49.421  1.00  0.00     0.077 C 
ENDROOT
BRANCH   3  13
HETATM   13  C2  UNK   900      24.735 -26.026 -51.814  1.00  0.00     0.056 C 
BRANCH  13  14
HETATM   14  C1  UNK   900      24.327 -25.793 -53.278  1.00  0.00     0.056 C 
HETATM   15  C6  UNK   900      23.523 -24.502 -53.417  1.00  0.00     0.018 C 
BRANCH  14  16
HETATM   16  C4  UNK   900      25.545 -25.697 -54.196  1.00  0.00     0.133 C 
HETATM   17  O3  UNK   900      26.013 -26.686 -54.763  1.00  0.00    -0.297 OA
BRANCH  16  18
HETATM   18  C5  UNK   900      26.184 -24.331 -54.367  1.00  0.00     0.110 C 
BRANCH  18  19
HETATM   19  C9  UNK   900      27.504 -24.236 -53.608  1.00  0.00     0.121 C 
HETATM   20  C14 UNK   900      27.328 -23.497 -52.290  1.00  0.00     0.040 C 
BRANCH  19  21
HETATM   21  O5  UNK   900      27.965 -25.557 -53.332  1.00  0.00    -0.396 OA
HETATM   22  H16 UNK   900      27.200 -26.154 -53.392  1.00  0.00     0.210 HD
ENDBRANCH  19  21
ENDBRANCH  18  19
ENDBRANCH  16  18
ENDBRANCH  14  16
ENDBRANCH  13  14
ENDBRANCH   3  13
BRANCH   4  23
HETATM   23  O4  UNK   900      22.240 -27.072 -51.057  1.00  0.00    -0.359 OA
HETATM   24  H15 UNK   900      22.477 -26.262 -51.533  1.00  0.00     0.217 HD
ENDBRANCH   4  23
BRANCH   5  25
HETATM   25  O2  UNK   900      26.901 -27.867 -51.696  1.00  0.00    -0.355 OA
HETATM   26  C18 UNK   900      27.873 -27.759 -50.657  1.00  0.00     0.210 C 
ENDBRANCH   5  25
TORSDOF 8
ENDMDL
