MODEL 1
REMARK VINA RESULT:      -6.1      0.000      0.000
REMARK  3 active torsions:
REMARK  status: ('A' for Active; 'I' for Inactive)
REMARK    1  A    between atoms: O2_2  and  C5_10 
REMARK    2  A    between atoms: O3_3  and  C9_14 
REMARK    3  A    between atoms: O4_4  and  C8_13 
ROOT
HETATM    1  O1  UNK   900      34.277 -52.894 -59.551  1.00  0.00    -0.312 OA
HETATM    2  O5  UNK   900      36.021 -51.702 -60.368  1.00  0.00    -0.259 OA
HETATM    3  C1  UNK   900      32.011 -52.028 -59.664  1.00  0.00     0.075 C 
HETATM    4  C2  UNK   900      33.005 -52.860 -58.866  1.00  0.00     0.132 C 
HETATM    5  C3  UNK   900      32.608 -50.666 -59.857  1.00  0.00    -0.001 A 
HETATM    6  C4  UNK   900      33.995 -50.540 -60.003  1.00  0.00     0.081 A 
HETATM    7  C5  UNK   900      31.799 -49.527 -59.934  1.00  0.00     0.109 A 
HETATM    8  C6  UNK   900      32.527 -54.296 -58.712  1.00  0.00     0.040 C 
HETATM    9  C7  UNK   900      34.859 -51.743 -59.985  1.00  0.00     0.297 C 
HETATM   10  C8  UNK   900      34.569 -49.281 -60.208  1.00  0.00     0.085 A 
HETATM   11  C9  UNK   900      32.374 -48.272 -60.134  1.00  0.00     0.104 A 
HETATM   12  C10 UNK   900      33.757 -48.149 -60.267  1.00  0.00     0.077 A 
ENDROOT
BRANCH   7  13
HETATM   13  O2  UNK   900      30.443 -49.628 -59.821  1.00  0.00    -0.353 OA
HETATM   14  C11 UNK   900      29.699 -49.710 -61.034  1.00  0.00     0.210 C 
ENDBRANCH   7  13
BRANCH  11  15
HETATM   15  O3  UNK   900      31.595 -47.156 -60.204  1.00  0.00    -0.353 OA
HETATM   16  C12 UNK   900      32.096 -45.976 -59.578  1.00  0.00     0.210 C 
ENDBRANCH  11  15
BRANCH  10  17
HETATM   17  O4  UNK   900      35.913 -49.101 -60.343  1.00  0.00    -0.360 OA
HETATM   18  H8  UNK   900      36.107 -48.581 -61.138  1.00  0.00     0.217 HD
ENDBRANCH  10  17
TORSDOF 3
ENDMDL
MODEL 2
REMARK VINA RESULT:      -6.0      2.836      4.395
REMARK  3 active torsions:
REMARK  status: ('A' for Active; 'I' for Inactive)
REMARK    1  A    between atoms: O2_2  and  C5_10 
REMARK    2  A    between atoms: O3_3  and  C9_14 
REMARK    3  A    between atoms: O4_4  and  C8_13 
ROOT
HETATM    1  O1  UNK   900      32.930 -50.192 -59.251  1.00  0.00    -0.312 OA
HETATM    2  O5  UNK   900      31.233 -48.859 -58.564  1.00  0.00    -0.259 OA
HETATM    3  C1  UNK   900      33.779 -50.061 -61.523  1.00  0.00     0.075 C 
HETATM    4  C2  UNK   900      33.498 -50.966 -60.332  1.00  0.00     0.132 C 
HETATM    5  C3  UNK   900      32.493 -49.388 -61.899  1.00  0.00    -0.001 A 
HETATM    6  C4  UNK   900      31.572 -49.060 -60.895  1.00  0.00     0.081 A 
HETATM    7  C5  UNK   900      32.217 -49.047 -63.227  1.00  0.00     0.109 A 
HETATM    8  C6  UNK   900      34.774 -51.612 -59.814  1.00  0.00     0.040 C 
HETATM    9  C7  UNK   900      31.877 -49.359 -59.476  1.00  0.00     0.297 C 
HETATM   10  C8  UNK   900      30.377 -48.411 -61.222  1.00  0.00     0.085 A 
HETATM   11  C9  UNK   900      31.022 -48.404 -63.551  1.00  0.00     0.104 A 
HETATM   12  C10 UNK   900      30.102 -48.090 -62.551  1.00  0.00     0.077 A 
ENDROOT
BRANCH   7  13
HETATM   13  O2  UNK   900      33.110 -49.333 -64.219  1.00  0.00    -0.353 OA
HETATM   14  C11 UNK   900      34.074 -48.330 -64.526  1.00  0.00     0.210 C 
ENDBRANCH   7  13
BRANCH  11  15
HETATM   15  O3  UNK   900      30.741 -48.074 -64.844  1.00  0.00    -0.353 OA
HETATM   16  C12 UNK   900      29.708 -47.113 -65.056  1.00  0.00     0.210 C 
ENDBRANCH  11  15
BRANCH  10  17
HETATM   17  O4  UNK   900      29.442 -48.082 -60.286  1.00  0.00    -0.360 OA
HETATM   18  H8  UNK   900      29.145 -48.874 -59.811  1.00  0.00     0.217 HD
ENDBRANCH  10  17
TORSDOF 3
ENDMDL
MODEL 3
REMARK VINA RESULT:      -5.7      1.808      4.546
REMARK  3 active torsions:
REMARK  status: ('A' for Active; 'I' for Inactive)
REMARK    1  A    between atoms: O2_2  and  C5_10 
REMARK    2  A    between atoms: O3_3  and  C9_14 
REMARK    3  A    between atoms: O4_4  and  C8_13 
ROOT
HETATM    1  O1  UNK   900      31.433 -50.911 -59.553  1.00  0.00    -0.312 OA
HETATM    2  O5  UNK   900      32.178 -53.017 -59.180  1.00  0.00    -0.259 OA
HETATM    3  C1  UNK   900      32.743 -49.337 -60.860  1.00  0.00     0.075 C 
HETATM    4  C2  UNK   900      31.778 -49.514 -59.697  1.00  0.00     0.132 C 
HETATM    5  C3  UNK   900      33.934 -50.210 -60.601  1.00  0.00    -0.001 A 
HETATM    6  C4  UNK   900      33.759 -51.431 -59.939  1.00  0.00     0.081 A 
HETATM    7  C5  UNK   900      35.209 -49.843 -61.047  1.00  0.00     0.109 A 
HETATM    8  C6  UNK   900      30.486 -48.743 -59.926  1.00  0.00     0.040 C 
HETATM    9  C7  UNK   900      32.406 -51.862 -59.515  1.00  0.00     0.297 C 
HETATM   10  C8  UNK   900      34.854 -52.271 -59.708  1.00  0.00     0.085 A 
HETATM   11  C9  UNK   900      36.300 -50.680 -60.812  1.00  0.00     0.104 A 
HETATM   12  C10 UNK   900      36.123 -51.890 -60.142  1.00  0.00     0.077 A 
ENDROOT
BRANCH   7  13
HETATM   13  O2  UNK   900      35.401 -48.671 -61.718  1.00  0.00    -0.353 OA
HETATM   14  C11 UNK   900      35.374 -48.731 -63.142  1.00  0.00     0.210 C 
ENDBRANCH   7  13
BRANCH  11  15
HETATM   15  O3  UNK   900      37.547 -50.328 -61.237  1.00  0.00    -0.353 OA
HETATM   16  C12 UNK   900      38.391 -49.672 -60.293  1.00  0.00     0.210 C 
ENDBRANCH  11  15
BRANCH  10  17
HETATM   17  O4  UNK   900      34.740 -53.463 -59.057  1.00  0.00    -0.360 OA
HETATM   18  H8  UNK   900      34.849 -54.199 -59.678  1.00  0.00     0.217 HD
ENDBRANCH  10  17
TORSDOF 3
ENDMDL
MODEL 4
REMARK VINA RESULT:      -5.7     31.311     32.229
REMARK  3 active torsions:
REMARK  status: ('A' for Active; 'I' for Inactive)
REMARK    1  A    between atoms: O2_2  and  C5_10 
REMARK    2  A    between atoms: O3_3  and  C9_14 
REMARK    3  A    between atoms: O4_4  and  C8_13 
ROOT
HETATM    1  O1  UNK   900      25.726 -23.564 -76.787  1.00  0.00    -0.312 OA
HETATM    2  O5  UNK   900      24.096 -24.992 -76.127  1.00  0.00    -0.259 OA
HETATM    3  C1  UNK   900      26.990 -22.277 -75.161  1.00  0.00     0.075 C 
HETATM    4  C2  UNK   900      26.391 -22.301 -76.560  1.00  0.00     0.132 C 
HETATM    5  C3  UNK   900      25.883 -22.538 -74.185  1.00  0.00    -0.001 A 
HETATM    6  C4  UNK   900      24.836 -23.395 -74.549  1.00  0.00     0.081 A 
HETATM    7  C5  UNK   900      25.899 -21.973 -72.906  1.00  0.00     0.109 A 
HETATM    8  C6  UNK   900      27.466 -22.149 -77.626  1.00  0.00     0.040 C 
HETATM    9  C7  UNK   900      24.837 -24.050 -75.878  1.00  0.00     0.297 C 
HETATM   10  C8  UNK   900      23.805 -23.671 -73.645  1.00  0.00     0.085 A 
HETATM   11  C9  UNK   900      24.867 -22.245 -72.007  1.00  0.00     0.104 A 
HETATM   12  C10 UNK   900      23.821 -23.090 -72.377  1.00  0.00     0.077 A 
ENDROOT
BRANCH   7  13
HETATM   13  O2  UNK   900      26.921 -21.156 -72.519  1.00  0.00    -0.353 OA
HETATM   14  C11 UNK   900      26.718 -19.754 -72.669  1.00  0.00     0.210 C 
ENDBRANCH   7  13
BRANCH  11  15
HETATM   15  O3  UNK   900      24.871 -21.694 -70.760  1.00  0.00    -0.353 OA
HETATM   16  C12 UNK   900      23.729 -20.924 -70.390  1.00  0.00     0.210 C 
ENDBRANCH  11  15
BRANCH  10  17
HETATM   17  O4  UNK   900      22.757 -24.486 -73.953  1.00  0.00    -0.360 OA
HETATM   18  H8  UNK   900      21.953 -23.964 -74.095  1.00  0.00     0.217 HD
ENDBRANCH  10  17
TORSDOF 3
ENDMDL
MODEL 5
REMARK VINA RESULT:      -5.4      2.535      5.527
REMARK  3 active torsions:
REMARK  status: ('A' for Active; 'I' for Inactive)
REMARK    1  A    between atoms: O2_2  and  C5_10 
REMARK    2  A    between atoms: O3_3  and  C9_14 
REMARK    3  A    between atoms: O4_4  and  C8_13 
ROOT
HETATM    1  O1  UNK   900      32.955 -47.969 -64.052  1.00  0.00    -0.312 OA
HETATM    2  O5  UNK   900      30.838 -48.768 -64.149  1.00  0.00    -0.259 OA
HETATM    3  C1  UNK   900      34.613 -49.002 -62.609  1.00  0.00     0.075 C 
HETATM    4  C2  UNK   900      34.110 -47.704 -63.225  1.00  0.00     0.132 C 
HETATM    5  C3  UNK   900      33.478 -49.616 -61.848  1.00  0.00    -0.001 A 
HETATM    6  C4  UNK   900      32.169 -49.457 -62.321  1.00  0.00     0.081 A 
HETATM    7  C5  UNK   900      33.708 -50.379 -60.698  1.00  0.00     0.109 A 
HETATM    8  C6  UNK   900      35.170 -47.061 -64.107  1.00  0.00     0.040 C 
HETATM    9  C7  UNK   900      31.915 -48.704 -63.572  1.00  0.00     0.297 C 
HETATM   10  C8  UNK   900      31.097 -50.043 -61.638  1.00  0.00     0.085 A 
HETATM   11  C9  UNK   900      32.637 -50.958 -60.016  1.00  0.00     0.104 A 
HETATM   12  C10 UNK   900      31.335 -50.787 -60.484  1.00  0.00     0.077 A 
ENDROOT
BRANCH   7  13
HETATM   13  O2  UNK   900      34.976 -50.571 -60.232  1.00  0.00    -0.353 OA
HETATM   14  C11 UNK   900      35.652 -51.748 -60.667  1.00  0.00     0.210 C 
ENDBRANCH   7  13
BRANCH  11  15
HETATM   15  O3  UNK   900      32.850 -51.698 -58.890  1.00  0.00    -0.353 OA
HETATM   16  C12 UNK   900      32.522 -53.084 -58.955  1.00  0.00     0.210 C 
ENDBRANCH  11  15
BRANCH  10  17
HETATM   17  O4  UNK   900      29.805 -49.907 -62.049  1.00  0.00    -0.360 OA
HETATM   18  H8  UNK   900      29.765 -49.423 -62.888  1.00  0.00     0.217 HD
ENDBRANCH  10  17
TORSDOF 3
ENDMDL
MODEL 6
REMARK VINA RESULT:      -5.3     31.258     33.124
REMARK  3 active torsions:
REMARK  status: ('A' for Active; 'I' for Inactive)
REMARK    1  A    between atoms: O2_2  and  C5_10 
REMARK    2  A    between atoms: O3_3  and  C9_14 
REMARK    3  A    between atoms: O4_4  and  C8_13 
ROOT
HETATM    1  O1  UNK   900      23.146 -23.170 -76.821  1.00  0.00    -0.312 OA
HETATM    2  O5  UNK   900      22.865 -24.816 -75.291  1.00  0.00    -0.259 OA
HETATM    3  C1  UNK   900      24.793 -21.417 -76.479  1.00  0.00     0.075 C 
HETATM    4  C2  UNK   900      23.429 -21.771 -77.054  1.00  0.00     0.132 C 
HETATM    5  C3  UNK   900      24.782 -21.777 -75.024  1.00  0.00    -0.001 A 
HETATM    6  C4  UNK   900      24.043 -22.887 -74.598  1.00  0.00     0.081 A 
HETATM    7  C5  UNK   900      25.531 -21.047 -74.094  1.00  0.00     0.109 A 
HETATM    8  C6  UNK   900      23.382 -21.537 -78.557  1.00  0.00     0.040 C 
HETATM    9  C7  UNK   900      23.296 -23.708 -75.579  1.00  0.00     0.297 C 
HETATM   10  C8  UNK   900      24.039 -23.254 -73.247  1.00  0.00     0.085 A 
HETATM   11  C9  UNK   900      25.521 -21.411 -72.747  1.00  0.00     0.104 A 
HETATM   12  C10 UNK   900      24.775 -22.511 -72.325  1.00  0.00     0.077 A 
ENDROOT
BRANCH   7  13
HETATM   13  O2  UNK   900      26.280 -19.977 -74.490  1.00  0.00    -0.353 OA
HETATM   14  C11 UNK   900      27.650 -20.226 -74.793  1.00  0.00     0.210 C 
ENDBRANCH   7  13
BRANCH  11  15
HETATM   15  O3  UNK   900      26.242 -20.702 -71.832  1.00  0.00    -0.353 OA
HETATM   16  C12 UNK   900      25.539 -19.714 -71.081  1.00  0.00     0.210 C 
ENDBRANCH  11  15
BRANCH  10  17
HETATM   17  O4  UNK   900      23.327 -24.317 -72.778  1.00  0.00    -0.360 OA
HETATM   18  H8  UNK   900      23.622 -24.554 -71.885  1.00  0.00     0.217 HD
ENDBRANCH  10  17
TORSDOF 3
ENDMDL
MODEL 7
REMARK VINA RESULT:      -5.0     31.799     32.623
REMARK  3 active torsions:
REMARK  status: ('A' for Active; 'I' for Inactive)
REMARK    1  A    between atoms: O2_2  and  C5_10 
REMARK    2  A    between atoms: O3_3  and  C9_14 
REMARK    3  A    between atoms: O4_4  and  C8_13 
ROOT
HETATM    1  O1  UNK   900      24.808 -23.737 -76.803  1.00  0.00    -0.312 OA
HETATM    2  O5  UNK   900      26.524 -22.433 -77.498  1.00  0.00    -0.259 OA
HETATM    3  C1  UNK   900      23.651 -23.271 -74.720  1.00  0.00     0.075 C 
HETATM    4  C2  UNK   900      24.131 -24.348 -75.682  1.00  0.00     0.132 C 
HETATM    5  C3  UNK   900      24.843 -22.459 -74.311  1.00  0.00    -0.001 A 
HETATM    6  C4  UNK   900      25.877 -22.249 -75.232  1.00  0.00     0.081 A 
HETATM    7  C5  UNK   900      24.919 -21.874 -73.043  1.00  0.00     0.109 A 
HETATM    8  C6  UNK   900      22.967 -25.158 -76.233  1.00  0.00     0.040 C 
HETATM    9  C7  UNK   900      25.783 -22.809 -76.601  1.00  0.00     0.297 C 
HETATM   10  C8  UNK   900      26.988 -21.475 -74.879  1.00  0.00     0.085 A 
HETATM   11  C9  UNK   900      26.029 -21.106 -72.691  1.00  0.00     0.104 A 
HETATM   12  C10 UNK   900      27.062 -20.910 -73.606  1.00  0.00     0.077 A 
ENDROOT
BRANCH   7  13
HETATM   13  O2  UNK   900      23.911 -22.042 -72.138  1.00  0.00    -0.353 OA
HETATM   14  C11 UNK   900      22.977 -20.974 -72.007  1.00  0.00     0.210 C 
ENDBRANCH   7  13
BRANCH  11  15
HETATM   15  O3  UNK   900      26.115 -20.539 -71.454  1.00  0.00    -0.353 OA
HETATM   16  C12 UNK   900      26.299 -19.125 -71.402  1.00  0.00     0.210 C 
ENDBRANCH  11  15
BRANCH  10  17
HETATM   17  O4  UNK   900      28.027 -21.251 -75.731  1.00  0.00    -0.360 OA
HETATM   18  H8  UNK   900      27.721 -21.275 -76.651  1.00  0.00     0.217 HD
ENDBRANCH  10  17
TORSDOF 3
ENDMDL
MODEL 8
REMARK VINA RESULT:      -4.9      5.380      7.698
REMARK  3 active torsions:
REMARK  status: ('A' for Active; 'I' for Inactive)
REMARK    1  A    between atoms: O2_2  and  C5_10 
REMARK    2  A    between atoms: O3_3  and  C9_14 
REMARK    3  A    between atoms: O4_4  and  C8_13 
ROOT
HETATM    1  O1  UNK   900      32.556 -45.168 -61.643  1.00  0.00    -0.312 OA
HETATM    2  O5  UNK   900      31.068 -46.628 -60.757  1.00  0.00    -0.259 OA
HETATM    3  C1  UNK   900      32.174 -44.167 -63.824  1.00  0.00     0.075 C 
HETATM    4  C2  UNK   900      33.212 -44.686 -62.838  1.00  0.00     0.132 C 
HETATM    5  C3  UNK   900      31.207 -45.280 -64.096  1.00  0.00    -0.001 A 
HETATM    6  C4  UNK   900      30.897 -46.184 -63.073  1.00  0.00     0.081 A 
HETATM    7  C5  UNK   900      30.579 -45.402 -65.340  1.00  0.00     0.109 A 
HETATM    8  C6  UNK   900      34.178 -43.588 -62.421  1.00  0.00     0.040 C 
HETATM    9  C7  UNK   900      31.507 -46.031 -61.731  1.00  0.00     0.297 C 
HETATM   10  C8  UNK   900      29.979 -47.216 -63.299  1.00  0.00     0.085 A 
HETATM   11  C9  UNK   900      29.667 -46.434 -65.565  1.00  0.00     0.104 A 
HETATM   12  C10 UNK   900      29.370 -47.340 -64.547  1.00  0.00     0.077 A 
ENDROOT
BRANCH   7  13
HETATM   13  O2  UNK   900      30.844 -44.517 -66.344  1.00  0.00    -0.353 OA
HETATM   14  C11 UNK   900      31.898 -44.856 -67.241  1.00  0.00     0.210 C 
ENDBRANCH   7  13
BRANCH  11  15
HETATM   15  O3  UNK   900      29.055 -46.566 -66.776  1.00  0.00    -0.353 OA
HETATM   16  C12 UNK   900      27.715 -47.054 -66.774  1.00  0.00     0.210 C 
ENDBRANCH  11  15
BRANCH  10  17
HETATM   17  O4  UNK   900      29.653 -48.130 -62.343  1.00  0.00    -0.360 OA
HETATM   18  H8  UNK   900      28.695 -48.135 -62.192  1.00  0.00     0.217 HD
ENDBRANCH  10  17
TORSDOF 3
ENDMDL
MODEL 9
REMARK VINA RESULT:      -4.9      5.738      8.139
REMARK  3 active torsions:
REMARK  status: ('A' for Active; 'I' for Inactive)
REMARK    1  A    between atoms: O2_2  and  C5_10 
REMARK    2  A    between atoms: O3_3  and  C9_14 
REMARK    3  A    between atoms: O4_4  and  C8_13 
ROOT
HETATM    1  O1  UNK   900      33.857 -44.129 -64.333  1.00  0.00    -0.312 OA
HETATM    2  O5  UNK   900      32.905 -42.720 -65.830  1.00  0.00    -0.259 OA
HETATM    3  C1  UNK   900      33.139 -46.443 -64.167  1.00  0.00     0.075 C 
HETATM    4  C2  UNK   900      33.663 -45.228 -63.415  1.00  0.00     0.132 C 
HETATM    5  C3  UNK   900      31.878 -46.037 -64.867  1.00  0.00    -0.001 A 
HETATM    6  C4  UNK   900      31.755 -44.731 -65.355  1.00  0.00     0.081 A 
HETATM    7  C5  UNK   900      30.841 -46.953 -65.077  1.00  0.00     0.109 A 
HETATM    8  C6  UNK   900      35.004 -45.518 -62.756  1.00  0.00     0.040 C 
HETATM    9  C7  UNK   900      32.869 -43.767 -65.197  1.00  0.00     0.297 C 
HETATM   10  C8  UNK   900      30.595 -44.339 -66.033  1.00  0.00     0.085 A 
HETATM   11  C9  UNK   900      29.684 -46.559 -65.749  1.00  0.00     0.104 A 
HETATM   12  C10 UNK   900      29.560 -45.254 -66.223  1.00  0.00     0.077 A 
ENDROOT
BRANCH   7  13
HETATM   13  O2  UNK   900      30.949 -48.239 -64.634  1.00  0.00    -0.353 OA
HETATM   14  C11 UNK   900      30.393 -48.529 -63.354  1.00  0.00     0.210 C 
ENDBRANCH   7  13
BRANCH  11  15
HETATM   15  O3  UNK   900      28.665 -47.443 -65.952  1.00  0.00    -0.353 OA
HETATM   16  C12 UNK   900      27.713 -47.112 -66.961  1.00  0.00     0.210 C 
ENDBRANCH  11  15
BRANCH  10  17
HETATM   17  O4  UNK   900      30.419 -43.077 -66.516  1.00  0.00    -0.360 OA
HETATM   18  H8  UNK   900      29.920 -42.539 -65.882  1.00  0.00     0.217 HD
ENDBRANCH  10  17
TORSDOF 3
ENDMDL
