MODEL 1
REMARK VINA RESULT:      -7.6      0.000      0.000
REMARK  2 active torsions:
REMARK  status: ('A' for Active; 'I' for Inactive)
REMARK    1  A    between atoms: O2_2  and  C8_12 
REMARK    2  A    between atoms: O3_3  and  C13_17 
ROOT
HETATM    1  O1  UNK   900      32.096 -45.420 -61.763  1.00  0.00    -0.309 OA
HETATM    2  O4  UNK   900      32.176 -47.845 -57.741  1.00  0.00    -0.285 OA
HETATM    3  C1  UNK   900      30.699 -47.463 -61.519  1.00  0.00     0.008 A 
HETATM    4  C2  UNK   900      30.740 -46.199 -63.605  1.00  0.00     0.005 A 
HETATM    5  C3  UNK   900      31.661 -46.491 -60.983  1.00  0.00     0.090 A 
HETATM    6  C4  UNK   900      30.267 -47.310 -62.787  1.00  0.00     0.029 A 
HETATM    7  C5  UNK   900      31.641 -45.293 -63.050  1.00  0.00     0.089 A 
HETATM    8  C6  UNK   900      30.232 -48.583 -60.662  1.00  0.00    -0.012 A 
HETATM    9  C7  UNK   900      30.311 -46.021 -64.924  1.00  0.00    -0.046 A 
HETATM   10  C8  UNK   900      30.729 -48.713 -59.409  1.00  0.00     0.122 A 
HETATM   11  C9  UNK   900      32.142 -46.614 -59.742  1.00  0.00     0.095 A 
HETATM   12  C10 UNK   900      32.117 -44.214 -63.796  1.00  0.00     0.074 A 
HETATM   13  C11 UNK   900      30.786 -44.943 -65.674  1.00  0.00     0.044 A 
HETATM   14  C12 UNK   900      31.720 -47.733 -58.875  1.00  0.00     0.208 A 
HETATM   15  C13 UNK   900      31.688 -44.040 -65.111  1.00  0.00     0.068 A 
HETATM   16  C14 UNK   900      29.219 -49.558 -61.209  1.00  0.00     0.052 C 
HETATM   17  C15 UNK   900      29.346 -46.953 -65.583  1.00  0.00     0.049 C 
ENDROOT
BRANCH  10  18
HETATM   18  O2  UNK   900      30.341 -49.739 -58.570  1.00  0.00    -0.356 OA
HETATM   19  H11 UNK   900      31.143 -50.081 -58.136  1.00  0.00     0.218 HD
ENDBRANCH  10  18
BRANCH  15  20
HETATM   20  O3  UNK   900      32.148 -42.990 -65.844  1.00  0.00    -0.361 OA
HETATM   21  H12 UNK   900      33.114 -42.936 -65.746  1.00  0.00     0.217 HD
ENDBRANCH  15  20
TORSDOF 2
ENDMDL
MODEL 2
REMARK VINA RESULT:      -7.4      0.738      5.868
REMARK  2 active torsions:
REMARK  status: ('A' for Active; 'I' for Inactive)
REMARK    1  A    between atoms: O2_2  and  C8_12 
REMARK    2  A    between atoms: O3_3  and  C13_17 
ROOT
HETATM    1  O1  UNK   900      32.259 -45.416 -61.617  1.00  0.00    -0.309 OA
HETATM    2  O4  UNK   900      32.071 -42.990 -65.635  1.00  0.00    -0.285 OA
HETATM    3  C1  UNK   900      30.792 -46.195 -63.468  1.00  0.00     0.008 A 
HETATM    4  C2  UNK   900      30.884 -47.383 -61.339  1.00  0.00     0.005 A 
HETATM    5  C3  UNK   900      31.762 -45.245 -62.909  1.00  0.00     0.090 A 
HETATM    6  C4  UNK   900      30.375 -47.219 -62.697  1.00  0.00     0.029 A 
HETATM    7  C5  UNK   900      31.814 -46.466 -60.855  1.00  0.00     0.089 A 
HETATM    8  C6  UNK   900      30.294 -46.005 -64.855  1.00  0.00    -0.012 A 
HETATM    9  C7  UNK   900      30.464 -48.434 -60.518  1.00  0.00    -0.046 A 
HETATM   10  C8  UNK   900      30.714 -44.936 -65.571  1.00  0.00     0.122 A 
HETATM   11  C9  UNK   900      32.185 -44.196 -63.622  1.00  0.00     0.095 A 
HETATM   12  C10 UNK   900      32.329 -46.587 -59.564  1.00  0.00     0.074 A 
HETATM   13  C11 UNK   900      30.976 -48.558 -59.224  1.00  0.00     0.044 A 
HETATM   14  C12 UNK   900      31.687 -43.963 -64.992  1.00  0.00     0.208 A 
HETATM   15  C13 UNK   900      31.908 -47.635 -58.748  1.00  0.00     0.068 A 
HETATM   16  C14 UNK   900      29.323 -47.004 -65.433  1.00  0.00     0.052 C 
HETATM   17  C15 UNK   900      29.470 -49.455 -60.971  1.00  0.00     0.049 C 
ENDROOT
BRANCH  10  18
HETATM   18  O2  UNK   900      30.279 -44.701 -66.860  1.00  0.00    -0.356 OA
HETATM   19  H11 UNK   900      30.771 -45.300 -67.449  1.00  0.00     0.218 HD
ENDBRANCH  10  18
BRANCH  15  20
HETATM   20  O3  UNK   900      32.405 -47.759 -57.487  1.00  0.00    -0.361 OA
HETATM   21  H12 UNK   900      33.225 -48.279 -57.520  1.00  0.00     0.217 HD
ENDBRANCH  15  20
TORSDOF 2
ENDMDL
MODEL 3
REMARK VINA RESULT:      -7.1     10.725     13.520
REMARK  2 active torsions:
REMARK  status: ('A' for Active; 'I' for Inactive)
REMARK    1  A    between atoms: O2_2  and  C8_12 
REMARK    2  A    between atoms: O3_3  and  C13_17 
ROOT
HETATM    1  O1  UNK   900      33.960 -35.806 -56.726  1.00  0.00    -0.309 OA
HETATM    2  O4  UNK   900      34.068 -31.705 -59.013  1.00  0.00    -0.285 OA
HETATM    3  C1  UNK   900      35.598 -35.455 -58.563  1.00  0.00     0.008 A 
HETATM    4  C2  UNK   900      35.459 -37.584 -57.380  1.00  0.00     0.005 A 
HETATM    5  C3  UNK   900      34.504 -34.979 -57.707  1.00  0.00     0.090 A 
HETATM    6  C4  UNK   900      36.045 -36.715 -58.395  1.00  0.00     0.029 A 
HETATM    7  C5  UNK   900      34.433 -37.085 -56.581  1.00  0.00     0.089 A 
HETATM    8  C6  UNK   900      36.179 -34.547 -59.585  1.00  0.00    -0.012 A 
HETATM    9  C7  UNK   900      35.901 -38.897 -57.190  1.00  0.00    -0.046 A 
HETATM   10  C8  UNK   900      35.665 -33.304 -59.739  1.00  0.00     0.122 A 
HETATM   11  C9  UNK   900      34.006 -33.747 -57.852  1.00  0.00     0.095 A 
HETATM   12  C10 UNK   900      33.846 -37.881 -55.596  1.00  0.00     0.074 A 
HETATM   13  C11 UNK   900      35.316 -39.697 -56.206  1.00  0.00     0.044 A 
HETATM   14  C12 UNK   900      34.541 -32.830 -58.878  1.00  0.00     0.208 A 
HETATM   15  C13 UNK   900      34.289 -39.189 -55.410  1.00  0.00     0.068 A 
HETATM   16  C14 UNK   900      37.324 -35.033 -60.438  1.00  0.00     0.052 C 
HETATM   17  C15 UNK   900      36.998 -39.498 -58.010  1.00  0.00     0.049 C 
ENDROOT
BRANCH  10  18
HETATM   18  O2  UNK   900      36.155 -32.419 -60.679  1.00  0.00    -0.356 OA
HETATM   19  H11 UNK   900      36.988 -32.055 -60.331  1.00  0.00     0.218 HD
ENDBRANCH  10  18
BRANCH  15  20
HETATM   20  O3  UNK   900      33.720 -39.971 -54.452  1.00  0.00    -0.361 OA
HETATM   21  H12 UNK   900      33.935 -39.605 -53.577  1.00  0.00     0.217 HD
ENDBRANCH  15  20
TORSDOF 2
ENDMDL
MODEL 4
REMARK VINA RESULT:      -7.1      3.820      5.514
REMARK  2 active torsions:
REMARK  status: ('A' for Active; 'I' for Inactive)
REMARK    1  A    between atoms: O2_2  and  C8_12 
REMARK    2  A    between atoms: O3_3  and  C13_17 
ROOT
HETATM    1  O1  UNK   900      31.333 -50.235 -60.047  1.00  0.00    -0.309 OA
HETATM    2  O4  UNK   900      32.861 -54.437 -58.608  1.00  0.00    -0.285 OA
HETATM    3  C1  UNK   900      33.750 -50.795 -60.205  1.00  0.00     0.008 A 
HETATM    4  C2  UNK   900      32.910 -48.608 -60.884  1.00  0.00     0.005 A 
HETATM    5  C3  UNK   900      32.369 -51.147 -59.851  1.00  0.00     0.090 A 
HETATM    6  C4  UNK   900      33.995 -49.565 -60.698  1.00  0.00     0.029 A 
HETATM    7  C5  UNK   900      31.613 -48.990 -60.548  1.00  0.00     0.089 A 
HETATM    8  C6  UNK   900      34.835 -51.791 -60.010  1.00  0.00    -0.012 A 
HETATM    9  C7  UNK   900      33.139 -47.324 -61.389  1.00  0.00    -0.046 A 
HETATM   10  C8  UNK   900      34.539 -52.999 -59.472  1.00  0.00     0.122 A 
HETATM   11  C9  UNK   900      32.077 -52.344 -59.331  1.00  0.00     0.095 A 
HETATM   12  C10 UNK   900      30.545 -48.107 -60.711  1.00  0.00     0.074 A 
HETATM   13  C11 UNK   900      32.073 -46.437 -61.553  1.00  0.00     0.044 A 
HETATM   14  C12 UNK   900      33.136 -53.345 -59.098  1.00  0.00     0.208 A 
HETATM   15  C13 UNK   900      30.777 -46.828 -61.215  1.00  0.00     0.068 A 
HETATM   16  C14 UNK   900      36.245 -51.434 -60.406  1.00  0.00     0.052 C 
HETATM   17  C15 UNK   900      34.503 -46.846 -61.770  1.00  0.00     0.049 C 
ENDROOT
BRANCH  10  18
HETATM   18  O2  UNK   900      35.506 -53.961 -59.257  1.00  0.00    -0.356 OA
HETATM   19  H11 UNK   900      36.367 -53.566 -59.481  1.00  0.00     0.218 HD
ENDBRANCH  10  18
BRANCH  15  20
HETATM   20  O3  UNK   900      29.740 -45.961 -61.376  1.00  0.00    -0.361 OA
HETATM   21  H12 UNK   900      29.962 -45.331 -62.082  1.00  0.00     0.217 HD
ENDBRANCH  15  20
TORSDOF 2
ENDMDL
MODEL 5
REMARK VINA RESULT:      -6.9     20.564     22.506
REMARK  2 active torsions:
REMARK  status: ('A' for Active; 'I' for Inactive)
REMARK    1  A    between atoms: O2_2  and  C8_12 
REMARK    2  A    between atoms: O3_3  and  C13_17 
ROOT
HETATM    1  O1  UNK   900      27.236 -48.882 -82.267  1.00  0.00    -0.309 OA
HETATM    2  O4  UNK   900      22.955 -46.970 -82.538  1.00  0.00    -0.285 OA
HETATM    3  C1  UNK   900      26.647 -47.429 -84.198  1.00  0.00     0.008 A 
HETATM    4  C2  UNK   900      28.836 -48.494 -84.036  1.00  0.00     0.005 A 
HETATM    5  C3  UNK   900      26.305 -48.082 -82.928  1.00  0.00     0.090 A 
HETATM    6  C4  UNK   900      27.871 -47.641 -84.721  1.00  0.00     0.029 A 
HETATM    7  C5  UNK   900      28.472 -49.082 -82.826  1.00  0.00     0.089 A 
HETATM    8  C6  UNK   900      25.647 -46.562 -84.871  1.00  0.00    -0.012 A 
HETATM    9  C7  UNK   900      30.110 -48.734 -84.561  1.00  0.00    -0.046 A 
HETATM   10  C8  UNK   900      24.417 -46.416 -84.322  1.00  0.00     0.122 A 
HETATM   11  C9  UNK   900      25.095 -47.927 -82.381  1.00  0.00     0.095 A 
HETATM   12  C10 UNK   900      29.365 -49.903 -82.136  1.00  0.00     0.074 A 
HETATM   13  C11 UNK   900      31.006 -49.556 -83.873  1.00  0.00     0.044 A 
HETATM   14  C12 UNK   900      24.068 -47.096 -83.040  1.00  0.00     0.208 A 
HETATM   15  C13 UNK   900      30.634 -50.140 -82.662  1.00  0.00     0.068 A 
HETATM   16  C14 UNK   900      26.018 -45.869 -86.158  1.00  0.00     0.052 C 
HETATM   17  C15 UNK   900      30.568 -48.137 -85.853  1.00  0.00     0.049 C 
ENDROOT
BRANCH  10  18
HETATM   18  O2  UNK   900      23.442 -45.632 -84.907  1.00  0.00    -0.356 OA
HETATM   19  H11 UNK   900      22.737 -46.227 -85.218  1.00  0.00     0.218 HD
ENDBRANCH  10  18
BRANCH  15  20
HETATM   20  O3  UNK   900      31.509 -50.941 -81.995  1.00  0.00    -0.361 OA
HETATM   21  H12 UNK   900      31.804 -51.651 -82.589  1.00  0.00     0.217 HD
ENDBRANCH  15  20
TORSDOF 2
ENDMDL
MODEL 6
REMARK VINA RESULT:      -6.3     10.390     10.855
REMARK  2 active torsions:
REMARK  status: ('A' for Active; 'I' for Inactive)
REMARK    1  A    between atoms: O2_2  and  C8_12 
REMARK    2  A    between atoms: O3_3  and  C13_17 
ROOT
HETATM    1  O1  UNK   900      36.994 -38.324 -58.242  1.00  0.00    -0.309 OA
HETATM    2  O4  UNK   900      39.745 -42.009 -57.284  1.00  0.00    -0.285 OA
HETATM    3  C1  UNK   900      36.322 -39.949 -56.484  1.00  0.00     0.008 A 
HETATM    4  C2  UNK   900      34.904 -38.050 -57.062  1.00  0.00     0.005 A 
HETATM    5  C3  UNK   900      37.261 -39.481 -57.511  1.00  0.00     0.090 A 
HETATM    6  C4  UNK   900      35.187 -39.249 -56.282  1.00  0.00     0.029 A 
HETATM    7  C5  UNK   900      35.831 -37.635 -58.016  1.00  0.00     0.089 A 
HETATM    8  C6  UNK   900      36.638 -41.171 -55.701  1.00  0.00    -0.012 A 
HETATM    9  C7  UNK   900      33.732 -37.310 -56.875  1.00  0.00    -0.046 A 
HETATM   10  C8  UNK   900      37.773 -41.859 -55.973  1.00  0.00     0.122 A 
HETATM   11  C9  UNK   900      38.386 -40.155 -57.770  1.00  0.00     0.095 A 
HETATM   12  C10 UNK   900      35.601 -36.492 -58.783  1.00  0.00     0.074 A 
HETATM   13  C11 UNK   900      33.498 -36.165 -57.641  1.00  0.00     0.044 A 
HETATM   14  C12 UNK   900      38.716 -41.390 -57.030  1.00  0.00     0.208 A 
HETATM   15  C13 UNK   900      34.431 -35.757 -58.594  1.00  0.00     0.068 A 
HETATM   16  C14 UNK   900      35.684 -41.626 -54.626  1.00  0.00     0.052 C 
HETATM   17  C15 UNK   900      32.695 -37.695 -55.870  1.00  0.00     0.049 C 
ENDROOT
BRANCH  10  18
HETATM   18  O2  UNK   900      38.115 -43.008 -55.287  1.00  0.00    -0.356 OA
HETATM   19  H11 UNK   900      37.554 -43.728 -55.625  1.00  0.00     0.218 HD
ENDBRANCH  10  18
BRANCH  15  20
HETATM   20  O3  UNK   900      34.200 -34.642 -59.339  1.00  0.00    -0.361 OA
HETATM   21  H12 UNK   900      34.324 -34.858 -60.279  1.00  0.00     0.217 HD
ENDBRANCH  15  20
TORSDOF 2
ENDMDL
MODEL 7
REMARK VINA RESULT:      -6.0     19.398     21.862
REMARK  2 active torsions:
REMARK  status: ('A' for Active; 'I' for Inactive)
REMARK    1  A    between atoms: O2_2  and  C8_12 
REMARK    2  A    between atoms: O3_3  and  C13_17 
ROOT
HETATM    1  O1  UNK   900      29.547 -50.354 -81.494  1.00  0.00    -0.309 OA
HETATM    2  O4  UNK   900      26.356 -47.380 -83.238  1.00  0.00    -0.285 OA
HETATM    3  C1  UNK   900      29.898 -49.334 -83.735  1.00  0.00     0.008 A 
HETATM    4  C2  UNK   900      31.493 -50.929 -82.805  1.00  0.00     0.005 A 
HETATM    5  C3  UNK   900      29.106 -49.508 -82.510  1.00  0.00     0.090 A 
HETATM    6  C4  UNK   900      31.045 -50.030 -83.863  1.00  0.00     0.029 A 
HETATM    7  C5  UNK   900      30.716 -51.051 -81.655  1.00  0.00     0.089 A 
HETATM    8  C6  UNK   900      29.419 -48.408 -84.793  1.00  0.00    -0.012 A 
HETATM    9  C7  UNK   900      32.676 -51.666 -82.917  1.00  0.00    -0.046 A 
HETATM   10  C8  UNK   900      28.239 -47.765 -84.630  1.00  0.00     0.122 A 
HETATM   11  C9  UNK   900      27.946 -48.863 -82.345  1.00  0.00     0.095 A 
HETATM   12  C10 UNK   900      31.108 -51.898 -80.618  1.00  0.00     0.074 A 
HETATM   13  C11 UNK   900      33.072 -52.515 -81.882  1.00  0.00     0.044 A 
HETATM   14  C12 UNK   900      27.428 -47.958 -83.391  1.00  0.00     0.208 A 
HETATM   15  C13 UNK   900      32.289 -52.631 -80.733  1.00  0.00     0.068 A 
HETATM   16  C14 UNK   900      30.255 -48.211 -86.033  1.00  0.00     0.052 C 
HETATM   17  C15 UNK   900      33.558 -51.583 -84.122  1.00  0.00     0.049 C 
ENDROOT
BRANCH  10  18
HETATM   18  O2  UNK   900      27.737 -46.901 -85.583  1.00  0.00    -0.356 OA
HETATM   19  H11 UNK   900      26.877 -47.252 -85.872  1.00  0.00     0.218 HD
ENDBRANCH  10  18
BRANCH  15  20
HETATM   20  O3  UNK   900      32.677 -53.460 -79.725  1.00  0.00    -0.361 OA
HETATM   21  H12 UNK   900      31.886 -53.831 -79.299  1.00  0.00     0.217 HD
ENDBRANCH  15  20
TORSDOF 2
ENDMDL
MODEL 8
REMARK VINA RESULT:      -6.0     26.169     27.932
REMARK  2 active torsions:
REMARK  status: ('A' for Active; 'I' for Inactive)
REMARK    1  A    between atoms: O2_2  and  C8_12 
REMARK    2  A    between atoms: O3_3  and  C13_17 
ROOT
HETATM    1  O1  UNK   900       4.892 -45.314 -62.278  1.00  0.00    -0.309 OA
HETATM    2  O4  UNK   900       6.272 -42.679 -65.914  1.00  0.00    -0.285 OA
HETATM    3  C1  UNK   900       3.867 -43.079 -62.649  1.00  0.00     0.008 A 
HETATM    4  C2  UNK   900       3.229 -44.464 -60.745  1.00  0.00     0.005 A 
HETATM    5  C3  UNK   900       4.801 -44.144 -63.032  1.00  0.00     0.090 A 
HETATM    6  C4  UNK   900       3.118 -43.247 -61.540  1.00  0.00     0.029 A 
HETATM    7  C5  UNK   900       4.120 -45.455 -61.154  1.00  0.00     0.089 A 
HETATM    8  C6  UNK   900       3.771 -41.852 -63.481  1.00  0.00    -0.012 A 
HETATM    9  C7  UNK   900       2.468 -44.660 -59.588  1.00  0.00    -0.046 A 
HETATM   10  C8  UNK   900       4.576 -41.717 -64.561  1.00  0.00     0.122 A 
HETATM   11  C9  UNK   900       5.587 -44.015 -64.106  1.00  0.00     0.095 A 
HETATM   12  C10 UNK   900       4.256 -46.636 -60.423  1.00  0.00     0.074 A 
HETATM   13  C11 UNK   900       2.602 -45.840 -58.854  1.00  0.00     0.044 A 
HETATM   14  C12 UNK   900       5.537 -42.795 -64.937  1.00  0.00     0.208 A 
HETATM   15  C13 UNK   900       3.495 -46.827 -59.271  1.00  0.00     0.068 A 
HETATM   16  C14 UNK   900       2.785 -40.776 -63.098  1.00  0.00     0.052 C 
HETATM   17  C15 UNK   900       1.494 -43.641 -59.090  1.00  0.00     0.049 C 
ENDROOT
BRANCH  10  18
HETATM   18  O2  UNK   900       4.540 -40.595 -65.366  1.00  0.00    -0.356 OA
HETATM   19  H11 UNK   900       3.848 -40.738 -66.035  1.00  0.00     0.218 HD
ENDBRANCH  10  18
BRANCH  15  20
HETATM   20  O3  UNK   900       3.624 -47.977 -58.553  1.00  0.00    -0.361 OA
HETATM   21  H12 UNK   900       4.065 -48.645 -59.104  1.00  0.00     0.217 HD
ENDBRANCH  15  20
TORSDOF 2
ENDMDL
MODEL 9
REMARK VINA RESULT:      -5.8     12.330     15.131
REMARK  2 active torsions:
REMARK  status: ('A' for Active; 'I' for Inactive)
REMARK    1  A    between atoms: O2_2  and  C8_12 
REMARK    2  A    between atoms: O3_3  and  C13_17 
ROOT
HETATM    1  O1  UNK   900      34.176 -33.780 -57.785  1.00  0.00    -0.309 OA
HETATM    2  O4  UNK   900      34.421 -29.311 -59.210  1.00  0.00    -0.285 OA
HETATM    3  C1  UNK   900      35.981 -33.073 -59.343  1.00  0.00     0.008 A 
HETATM    4  C2  UNK   900      35.772 -35.392 -58.616  1.00  0.00     0.005 A 
HETATM    5  C3  UNK   900      34.797 -32.776 -58.526  1.00  0.00     0.090 A 
HETATM    6  C4  UNK   900      36.436 -34.341 -59.378  1.00  0.00     0.029 A 
HETATM    7  C5  UNK   900      34.660 -35.061 -57.844  1.00  0.00     0.089 A 
HETATM    8  C6  UNK   900      36.640 -31.982 -60.105  1.00  0.00    -0.012 A 
HETATM    9  C7  UNK   900      36.221 -36.717 -58.640  1.00  0.00    -0.046 A 
HETATM   10  C8  UNK   900      36.117 -30.733 -60.066  1.00  0.00     0.122 A 
HETATM   11  C9  UNK   900      34.288 -31.540 -58.479  1.00  0.00     0.095 A 
HETATM   12  C10 UNK   900      33.995 -36.035 -57.097  1.00  0.00     0.074 A 
HETATM   13  C11 UNK   900      35.558 -37.694 -57.895  1.00  0.00     0.044 A 
HETATM   14  C12 UNK   900      34.903 -30.439 -59.249  1.00  0.00     0.208 A 
HETATM   15  C13 UNK   900      34.446 -37.354 -57.124  1.00  0.00     0.068 A 
HETATM   16  C14 UNK   900      37.875 -32.290 -60.915  1.00  0.00     0.052 C 
HETATM   17  C15 UNK   900      37.407 -37.143 -59.446  1.00  0.00     0.049 C 
ENDROOT
BRANCH  10  18
HETATM   18  O2  UNK   900      36.679 -29.681 -60.762  1.00  0.00    -0.356 OA
HETATM   19  H11 UNK   900      36.246 -29.643 -61.633  1.00  0.00     0.218 HD
ENDBRANCH  10  18
BRANCH  15  20
HETATM   20  O3  UNK   900      33.802 -38.309 -56.399  1.00  0.00    -0.361 OA
HETATM   21  H12 UNK   900      34.137 -38.291 -55.487  1.00  0.00     0.217 HD
ENDBRANCH  15  20
TORSDOF 2
ENDMDL
