MODEL 1
REMARK VINA RESULT:      -9.7      0.000      0.000
REMARK  1 active torsions:
REMARK  status: ('A' for Active; 'I' for Inactive)
REMARK    1  A    between atoms: O4_4  and  C16_21 
ROOT
HETATM    1  O1  UNK   900      21.724 -37.225 -67.896  1.00  0.00    -0.305 OA
HETATM    2  O2  UNK   900      23.053 -39.156 -68.374  1.00  0.00    -0.317 OA
HETATM    3  O3  UNK   900      19.718 -39.197 -67.324  1.00  0.00    -0.287 OA
HETATM    4  O5  UNK   900      24.559 -34.035 -69.737  1.00  0.00    -0.285 OA
HETATM    5  C1  UNK   900      22.448 -38.607 -66.042  1.00  0.00     0.058 C 
HETATM    6  C2  UNK   900      22.060 -38.558 -67.519  1.00  0.00     0.244 A 
HETATM    7  C3  UNK   900      23.646 -37.671 -65.833  1.00  0.00     0.052 C 
HETATM    8  C4  UNK   900      23.446 -36.291 -66.440  1.00  0.00    -0.018 C 
HETATM    9  C5  UNK   900      22.791 -40.012 -65.538  1.00  0.00     0.016 C 
HETATM   10  C6  UNK   900      20.820 -39.362 -67.825  1.00  0.00     0.220 A 
HETATM   11  C7  UNK   900      22.732 -36.285 -67.722  1.00  0.00     0.084 C 
HETATM   12  C8  UNK   900      21.111 -40.369 -68.841  1.00  0.00     0.012 A 
HETATM   13  C9  UNK   900      23.921 -35.178 -65.829  1.00  0.00    -0.050 C 
HETATM   14  C10 UNK   900      22.401 -40.149 -69.072  1.00  0.00     0.149 A 
HETATM   15  C11 UNK   900      22.959 -35.452 -68.747  1.00  0.00     0.095 C 
HETATM   16  C12 UNK   900      20.158 -41.338 -69.407  1.00  0.00     0.054 C 
HETATM   17  C13 UNK   900      23.764 -33.814 -66.318  1.00  0.00     0.048 C 
HETATM   18  C14 UNK   900      24.702 -35.210 -64.532  1.00  0.00     0.049 C 
HETATM   19  C15 UNK   900      23.886 -34.303 -68.748  1.00  0.00     0.207 C 
HETATM   20  C16 UNK   900      23.812 -33.385 -67.587  1.00  0.00     0.116 C 
ENDROOT
BRANCH  20  21
HETATM   21  O4  UNK   900      23.803 -32.039 -67.902  1.00  0.00    -0.357 OA
HETATM   22  H16 UNK   900      24.726 -31.758 -68.032  1.00  0.00     0.218 HD
ENDBRANCH  20  21
TORSDOF 1
ENDMDL
MODEL 2
REMARK VINA RESULT:      -9.4      2.224      3.081
REMARK  1 active torsions:
REMARK  status: ('A' for Active; 'I' for Inactive)
REMARK    1  A    between atoms: O4_4  and  C16_21 
ROOT
HETATM    1  O1  UNK   900      22.830 -38.809 -67.129  1.00  0.00    -0.305 OA
HETATM    2  O2  UNK   900      21.893 -38.386 -69.289  1.00  0.00    -0.317 OA
HETATM    3  O3  UNK   900      22.434 -41.546 -67.896  1.00  0.00    -0.287 OA
HETATM    4  O5  UNK   900      22.566 -34.476 -65.466  1.00  0.00    -0.285 OA
HETATM    5  C1  UNK   900      24.175 -39.309 -69.081  1.00  0.00     0.058 C 
HETATM    6  C2  UNK   900      22.768 -39.210 -68.495  1.00  0.00     0.244 A 
HETATM    7  C3  UNK   900      24.841 -37.933 -68.954  1.00  0.00     0.052 C 
HETATM    8  C4  UNK   900      24.723 -37.330 -67.563  1.00  0.00    -0.018 C 
HETATM    9  C5  UNK   900      24.208 -39.771 -70.540  1.00  0.00     0.016 C 
HETATM   10  C6  UNK   900      22.051 -40.537 -68.468  1.00  0.00     0.220 A 
HETATM   11  C7  UNK   900      23.441 -37.583 -66.895  1.00  0.00     0.084 C 
HETATM   12  C8  UNK   900      20.797 -40.448 -69.211  1.00  0.00     0.012 A 
HETATM   13  C9  UNK   900      25.733 -36.606 -67.021  1.00  0.00    -0.050 C 
HETATM   14  C10 UNK   900      20.821 -39.185 -69.622  1.00  0.00     0.149 A 
HETATM   15  C11 UNK   900      22.800 -36.740 -66.074  1.00  0.00     0.095 C 
HETATM   16  C12 UNK   900      19.818 -41.531 -69.403  1.00  0.00     0.054 C 
HETATM   17  C13 UNK   900      25.723 -36.008 -65.692  1.00  0.00     0.048 C 
HETATM   18  C14 UNK   900      27.028 -36.312 -67.747  1.00  0.00     0.049 C 
HETATM   19  C15 UNK   900      23.310 -35.443 -65.585  1.00  0.00     0.207 C 
HETATM   20  C16 UNK   900      24.695 -35.427 -65.059  1.00  0.00     0.116 C 
ENDROOT
BRANCH  20  21
HETATM   21  O4  UNK   900      24.861 -34.757 -63.861  1.00  0.00    -0.357 OA
HETATM   22  H16 UNK   900      25.507 -34.044 -64.006  1.00  0.00     0.218 HD
ENDBRANCH  20  21
TORSDOF 1
ENDMDL
MODEL 3
REMARK VINA RESULT:      -9.3      2.731      6.358
REMARK  1 active torsions:
REMARK  status: ('A' for Active; 'I' for Inactive)
REMARK    1  A    between atoms: O4_4  and  C16_21 
ROOT
HETATM    1  O1  UNK   900      21.888 -36.472 -69.656  1.00  0.00    -0.305 OA
HETATM    2  O2  UNK   900      23.035 -36.957 -67.613  1.00  0.00    -0.317 OA
HETATM    3  O3  UNK   900      22.603 -33.773 -68.990  1.00  0.00    -0.287 OA
HETATM    4  O5  UNK   900      19.877 -40.620 -70.253  1.00  0.00    -0.285 OA
HETATM    5  C1  UNK   900      24.301 -36.257 -69.615  1.00  0.00     0.058 C 
HETATM    6  C2  UNK   900      23.001 -36.169 -68.818  1.00  0.00     0.244 A 
HETATM    7  C3  UNK   900      24.421 -37.680 -70.175  1.00  0.00     0.052 C 
HETATM    8  C4  UNK   900      23.159 -38.162 -70.874  1.00  0.00    -0.018 C 
HETATM    9  C5  UNK   900      25.551 -35.910 -68.802  1.00  0.00     0.016 C 
HETATM   10  C6  UNK   900      22.722 -34.778 -68.306  1.00  0.00     0.220 A 
HETATM   11  C7  UNK   900      21.908 -37.733 -70.240  1.00  0.00     0.084 C 
HETATM   12  C8  UNK   900      22.582 -34.795 -66.853  1.00  0.00     0.012 A 
HETATM   13  C9  UNK   900      23.222 -38.943 -71.981  1.00  0.00    -0.050 C 
HETATM   14  C10 UNK   900      22.776 -36.081 -66.582  1.00  0.00     0.149 A 
HETATM   15  C11 UNK   900      20.774 -38.443 -70.172  1.00  0.00     0.095 C 
HETATM   16  C12 UNK   900      22.299 -33.636 -65.990  1.00  0.00     0.054 C 
HETATM   17  C13 UNK   900      22.074 -39.437 -72.731  1.00  0.00     0.048 C 
HETATM   18  C14 UNK   900      24.523 -39.420 -72.590  1.00  0.00     0.049 C 
HETATM   19  C15 UNK   900      20.520 -39.745 -70.822  1.00  0.00     0.207 C 
HETATM   20  C16 UNK   900      20.898 -39.862 -72.249  1.00  0.00     0.116 C 
ENDROOT
BRANCH  20  21
HETATM   21  O4  UNK   900      19.949 -40.454 -73.062  1.00  0.00    -0.357 OA
HETATM   22  H16 UNK   900      19.375 -41.002 -72.498  1.00  0.00     0.218 HD
ENDBRANCH  20  21
TORSDOF 1
ENDMDL
MODEL 4
REMARK VINA RESULT:      -8.0      1.747      6.091
REMARK  1 active torsions:
REMARK  status: ('A' for Active; 'I' for Inactive)
REMARK    1  A    between atoms: O4_4  and  C16_21 
ROOT
HETATM    1  O1  UNK   900      22.123 -36.989 -68.796  1.00  0.00    -0.305 OA
HETATM    2  O2  UNK   900      22.264 -36.338 -66.498  1.00  0.00    -0.317 OA
HETATM    3  O3  UNK   900      23.321 -34.415 -69.221  1.00  0.00    -0.287 OA
HETATM    4  O5  UNK   900      19.323 -40.658 -68.243  1.00  0.00    -0.285 OA
HETATM    5  C1  UNK   900      24.309 -36.928 -67.752  1.00  0.00     0.058 C 
HETATM    6  C2  UNK   900      22.899 -36.341 -67.791  1.00  0.00     0.244 A 
HETATM    7  C3  UNK   900      24.192 -38.429 -67.457  1.00  0.00     0.052 C 
HETATM    8  C4  UNK   900      23.182 -39.141 -68.342  1.00  0.00    -0.018 C 
HETATM    9  C5  UNK   900      25.228 -36.264 -66.723  1.00  0.00     0.016 C 
HETATM   10  C6  UNK   900      22.882 -34.884 -68.181  1.00  0.00     0.220 A 
HETATM   11  C7  UNK   900      21.975 -38.362 -68.641  1.00  0.00     0.084 C 
HETATM   12  C8  UNK   900      22.234 -34.091 -67.140  1.00  0.00     0.012 A 
HETATM   13  C9  UNK   900      23.401 -40.404 -68.786  1.00  0.00    -0.050 C 
HETATM   14  C10 UNK   900      21.927 -35.025 -66.247  1.00  0.00     0.149 A 
HETATM   15  C11 UNK   900      20.735 -38.851 -68.782  1.00  0.00     0.095 C 
HETATM   16  C12 UNK   900      22.019 -32.635 -67.160  1.00  0.00     0.054 C 
HETATM   17  C13 UNK   900      22.506 -41.161 -69.651  1.00  0.00     0.048 C 
HETATM   18  C14 UNK   900      24.629 -41.212 -68.423  1.00  0.00     0.049 C 
HETATM   19  C15 UNK   900      20.356 -40.278 -68.784  1.00  0.00     0.207 C 
HETATM   20  C16 UNK   900      21.166 -41.183 -69.632  1.00  0.00     0.116 C 
ENDROOT
BRANCH  20  21
HETATM   21  O4  UNK   900      20.441 -42.068 -70.408  1.00  0.00    -0.357 OA
HETATM   22  H16 UNK   900      19.568 -42.181 -69.993  1.00  0.00     0.218 HD
ENDBRANCH  20  21
TORSDOF 1
ENDMDL
MODEL 5
REMARK VINA RESULT:      -7.7     11.687     14.147
REMARK  1 active torsions:
REMARK  status: ('A' for Active; 'I' for Inactive)
REMARK    1  A    between atoms: O4_4  and  C16_21 
ROOT
HETATM    1  O1  UNK   900      32.139 -47.330 -63.514  1.00  0.00    -0.305 OA
HETATM    2  O2  UNK   900      31.043 -46.992 -61.414  1.00  0.00    -0.317 OA
HETATM    3  O3  UNK   900      33.047 -49.736 -62.239  1.00  0.00    -0.287 OA
HETATM    4  O5  UNK   900      31.533 -43.055 -65.238  1.00  0.00    -0.285 OA
HETATM    5  C1  UNK   900      30.237 -48.731 -62.974  1.00  0.00     0.058 C 
HETATM    6  C2  UNK   900      31.424 -47.931 -62.438  1.00  0.00     0.244 A 
HETATM    7  C3  UNK   900      29.329 -47.770 -63.752  1.00  0.00     0.052 C 
HETATM    8  C4  UNK   900      30.080 -46.910 -64.756  1.00  0.00    -0.018 C 
HETATM    9  C5  UNK   900      29.430 -49.445 -61.886  1.00  0.00     0.016 C 
HETATM   10  C6  UNK   900      32.445 -48.796 -61.741  1.00  0.00     0.220 A 
HETATM   11  C7  UNK   900      31.401 -46.458 -64.306  1.00  0.00     0.084 C 
HETATM   12  C8  UNK   900      32.644 -48.336 -60.371  1.00  0.00     0.012 A 
HETATM   13  C9  UNK   900      29.534 -46.588 -65.955  1.00  0.00    -0.050 C 
HETATM   14  C10 UNK   900      31.801 -47.312 -60.309  1.00  0.00     0.149 A 
HETATM   15  C11 UNK   900      31.970 -45.278 -64.588  1.00  0.00     0.095 C 
HETATM   16  C12 UNK   900      33.565 -48.918 -59.380  1.00  0.00     0.054 C 
HETATM   17  C13 UNK   900      30.180 -45.789 -66.989  1.00  0.00     0.048 C 
HETATM   18  C14 UNK   900      28.147 -47.020 -66.380  1.00  0.00     0.049 C 
HETATM   19  C15 UNK   900      31.434 -44.249 -65.502  1.00  0.00     0.207 C 
HETATM   20  C16 UNK   900      30.964 -44.714 -66.828  1.00  0.00     0.116 C 
ENDROOT
BRANCH  20  21
HETATM   21  O4  UNK   900      31.386 -43.953 -67.902  1.00  0.00    -0.357 OA
HETATM   22  H16 UNK   900      30.736 -43.242 -68.037  1.00  0.00     0.218 HD
ENDBRANCH  20  21
TORSDOF 1
ENDMDL
MODEL 6
REMARK VINA RESULT:      -7.3     12.031     14.768
REMARK  1 active torsions:
REMARK  status: ('A' for Active; 'I' for Inactive)
REMARK    1  A    between atoms: O4_4  and  C16_21 
ROOT
HETATM    1  O1  UNK   900      31.447 -47.840 -64.161  1.00  0.00    -0.305 OA
HETATM    2  O2  UNK   900      29.767 -46.320 -64.931  1.00  0.00    -0.317 OA
HETATM    3  O3  UNK   900      32.818 -46.947 -66.519  1.00  0.00    -0.287 OA
HETATM    4  O5  UNK   900      28.898 -50.020 -60.942  1.00  0.00    -0.285 OA
HETATM    5  C1  UNK   900      31.887 -45.463 -63.995  1.00  0.00     0.058 C 
HETATM    6  C2  UNK   900      31.174 -46.576 -64.761  1.00  0.00     0.244 A 
HETATM    7  C3  UNK   900      31.387 -45.488 -62.545  1.00  0.00     0.052 C 
HETATM    8  C4  UNK   900      31.418 -46.874 -61.919  1.00  0.00    -0.018 C 
HETATM    9  C5  UNK   900      31.680 -44.069 -64.593  1.00  0.00     0.016 C 
HETATM   10  C6  UNK   900      31.667 -46.717 -66.181  1.00  0.00     0.220 A 
HETATM   11  C7  UNK   900      31.058 -47.965 -62.833  1.00  0.00     0.084 C 
HETATM   12  C8  UNK   900      30.558 -46.564 -67.116  1.00  0.00     0.012 A 
HETATM   13  C9  UNK   900      31.738 -47.051 -60.614  1.00  0.00    -0.050 C 
HETATM   14  C10 UNK   900      29.540 -46.348 -66.290  1.00  0.00     0.149 A 
HETATM   15  C11 UNK   900      30.387 -49.078 -62.507  1.00  0.00     0.095 C 
HETATM   16  C12 UNK   900      30.637 -46.645 -68.585  1.00  0.00     0.054 C 
HETATM   17  C13 UNK   900      31.814 -48.335 -59.930  1.00  0.00     0.048 C 
HETATM   18  C14 UNK   900      32.055 -45.907 -59.673  1.00  0.00     0.049 C 
HETATM   19  C15 UNK   900      29.982 -49.484 -61.146  1.00  0.00     0.207 C 
HETATM   20  C16 UNK   900      31.017 -49.401 -60.089  1.00  0.00     0.116 C 
ENDROOT
BRANCH  20  21
HETATM   21  O4  UNK   900      31.104 -50.505 -59.262  1.00  0.00    -0.357 OA
HETATM   22  H16 UNK   900      30.707 -51.260 -59.731  1.00  0.00     0.218 HD
ENDBRANCH  20  21
TORSDOF 1
ENDMDL
MODEL 7
REMARK VINA RESULT:      -7.2     18.079     19.114
REMARK  1 active torsions:
REMARK  status: ('A' for Active; 'I' for Inactive)
REMARK    1  A    between atoms: O4_4  and  C16_21 
ROOT
HETATM    1  O1  UNK   900      24.045 -30.676 -50.383  1.00  0.00    -0.305 OA
HETATM    2  O2  UNK   900      23.335 -30.258 -48.137  1.00  0.00    -0.317 OA
HETATM    3  O3  UNK   900      22.064 -32.749 -50.236  1.00  0.00    -0.287 OA
HETATM    4  O5  UNK   900      27.879 -28.050 -50.334  1.00  0.00    -0.285 OA
HETATM    5  C1  UNK   900      21.859 -29.689 -50.035  1.00  0.00     0.058 C 
HETATM    6  C2  UNK   900      22.945 -30.609 -49.478  1.00  0.00     0.244 A 
HETATM    7  C3  UNK   900      22.473 -28.298 -50.240  1.00  0.00     0.052 C 
HETATM    8  C4  UNK   900      23.794 -28.326 -50.993  1.00  0.00    -0.018 C 
HETATM    9  C5  UNK   900      20.619 -29.585 -49.143  1.00  0.00     0.016 C 
HETATM   10  C6  UNK   900      22.484 -32.038 -49.335  1.00  0.00     0.220 A 
HETATM   11  C7  UNK   900      24.661 -29.463 -50.663  1.00  0.00     0.084 C 
HETATM   12  C8  UNK   900      22.634 -32.480 -47.952  1.00  0.00     0.012 A 
HETATM   13  C9  UNK   900      24.122 -27.352 -51.877  1.00  0.00    -0.050 C 
HETATM   14  C10 UNK   900      23.126 -31.388 -47.376  1.00  0.00     0.149 A 
HETATM   15  C11 UNK   900      26.000 -29.444 -50.607  1.00  0.00     0.095 C 
HETATM   16  C12 UNK   900      22.300 -33.812 -47.420  1.00  0.00     0.054 C 
HETATM   17  C13 UNK   900      25.350 -27.301 -52.660  1.00  0.00     0.048 C 
HETATM   18  C14 UNK   900      23.236 -26.158 -52.165  1.00  0.00     0.049 C 
HETATM   19  C15 UNK   900      26.872 -28.312 -50.982  1.00  0.00     0.207 C 
HETATM   20  C16 UNK   900      26.585 -27.649 -52.275  1.00  0.00     0.116 C 
ENDROOT
BRANCH  20  21
HETATM   21  O4  UNK   900      27.691 -27.403 -53.067  1.00  0.00    -0.357 OA
HETATM   22  H16 UNK   900      27.706 -26.452 -53.271  1.00  0.00     0.218 HD
ENDBRANCH  20  21
TORSDOF 1
ENDMDL
MODEL 8
REMARK VINA RESULT:      -6.9     14.818     17.202
REMARK  1 active torsions:
REMARK  status: ('A' for Active; 'I' for Inactive)
REMARK    1  A    between atoms: O4_4  and  C16_21 
ROOT
HETATM    1  O1  UNK   900      36.474 -38.530 -57.515  1.00  0.00    -0.305 OA
HETATM    2  O2  UNK   900      37.228 -38.730 -55.253  1.00  0.00    -0.317 OA
HETATM    3  O3  UNK   900      37.474 -41.214 -57.701  1.00  0.00    -0.287 OA
HETATM    4  O5  UNK   900      35.771 -33.935 -57.544  1.00  0.00    -0.285 OA
HETATM    5  C1  UNK   900      35.228 -39.966 -56.013  1.00  0.00     0.058 C 
HETATM    6  C2  UNK   900      36.590 -39.374 -56.372  1.00  0.00     0.244 A 
HETATM    7  C3  UNK   900      34.265 -38.807 -55.729  1.00  0.00     0.052 C 
HETATM    8  C4  UNK   900      34.278 -37.733 -56.806  1.00  0.00    -0.018 C 
HETATM    9  C5  UNK   900      35.264 -40.919 -54.816  1.00  0.00     0.016 C 
HETATM   10  C6  UNK   900      37.596 -40.423 -56.778  1.00  0.00     0.220 A 
HETATM   11  C7  UNK   900      35.602 -37.457 -57.377  1.00  0.00     0.084 C 
HETATM   12  C8  UNK   900      38.774 -40.350 -55.918  1.00  0.00     0.012 A 
HETATM   13  C9  UNK   900      33.143 -37.088 -57.172  1.00  0.00    -0.050 C 
HETATM   14  C10 UNK   900      38.446 -39.354 -55.102  1.00  0.00     0.149 A 
HETATM   15  C11 UNK   900      36.052 -36.262 -57.782  1.00  0.00     0.095 C 
HETATM   16  C12 UNK   900      39.972 -41.202 -56.006  1.00  0.00     0.054 C 
HETATM   17  C13 UNK   900      33.050 -36.063 -58.203  1.00  0.00     0.048 C 
HETATM   18  C14 UNK   900      31.795 -37.350 -56.534  1.00  0.00     0.049 C 
HETATM   19  C15 UNK   900      35.269 -35.011 -57.847  1.00  0.00     0.207 C 
HETATM   20  C16 UNK   900      33.933 -35.094 -58.482  1.00  0.00     0.116 C 
ENDROOT
BRANCH  20  21
HETATM   21  O4  UNK   900      33.649 -34.087 -59.386  1.00  0.00    -0.357 OA
HETATM   22  H16 UNK   900      32.819 -34.319 -59.839  1.00  0.00     0.218 HD
ENDBRANCH  20  21
TORSDOF 1
ENDMDL
MODEL 9
REMARK VINA RESULT:      -6.8     14.816     17.128
REMARK  1 active torsions:
REMARK  status: ('A' for Active; 'I' for Inactive)
REMARK    1  A    between atoms: O4_4  and  C16_21 
ROOT
HETATM    1  O1  UNK   900      36.009 -37.834 -56.205  1.00  0.00    -0.305 OA
HETATM    2  O2  UNK   900      35.882 -39.838 -57.506  1.00  0.00    -0.317 OA
HETATM    3  O3  UNK   900      37.743 -39.437 -54.573  1.00  0.00    -0.287 OA
HETATM    4  O5  UNK   900      32.490 -35.553 -58.211  1.00  0.00    -0.285 OA
HETATM    5  C1  UNK   900      37.954 -38.493 -57.490  1.00  0.00     0.058 C 
HETATM    6  C2  UNK   900      36.715 -38.957 -56.728  1.00  0.00     0.244 A 
HETATM    7  C3  UNK   900      37.496 -37.569 -58.626  1.00  0.00     0.052 C 
HETATM    8  C4  UNK   900      36.531 -36.485 -58.171  1.00  0.00    -0.018 C 
HETATM    9  C5  UNK   900      38.797 -39.638 -58.058  1.00  0.00     0.016 C 
HETATM   10  C6  UNK   900      37.051 -39.790 -55.516  1.00  0.00     0.220 A 
HETATM   11  C7  UNK   900      35.569 -36.914 -57.149  1.00  0.00     0.084 C 
HETATM   12  C8  UNK   900      36.404 -41.096 -55.608  1.00  0.00     0.012 A 
HETATM   13  C9  UNK   900      36.570 -35.238 -58.703  1.00  0.00    -0.050 C 
HETATM   14  C10 UNK   900      35.772 -40.998 -56.772  1.00  0.00     0.149 A 
HETATM   15  C11 UNK   900      34.301 -36.499 -57.037  1.00  0.00     0.095 C 
HETATM   16  C12 UNK   900      36.485 -42.181 -54.616  1.00  0.00     0.054 C 
HETATM   17  C13 UNK   900      35.704 -34.130 -58.320  1.00  0.00     0.048 C 
HETATM   18  C14 UNK   900      37.536 -34.830 -59.795  1.00  0.00     0.049 C 
HETATM   19  C15 UNK   900      33.654 -35.443 -57.842  1.00  0.00     0.207 C 
HETATM   20  C16 UNK   900      34.403 -34.175 -58.003  1.00  0.00     0.116 C 
ENDROOT
BRANCH  20  21
HETATM   21  O4  UNK   900      33.661 -33.025 -57.811  1.00  0.00    -0.357 OA
HETATM   22  H16 UNK   900      33.047 -33.187 -57.073  1.00  0.00     0.218 HD
ENDBRANCH  20  21
TORSDOF 1
ENDMDL
