MODEL 1
REMARK VINA RESULT:      -5.8      0.000      0.000
REMARK  9 active torsions:
REMARK  status: ('A' for Active; 'I' for Inactive)
REMARK    1  A    between atoms: O1_1  and  C2_7 
REMARK    2  A    between atoms: O2_2  and  C4_9 
REMARK    3  A    between atoms: O4_4  and  C10_15 
REMARK    4  A    between atoms: C1_6  and  C2_7 
REMARK    5  A    between atoms: C1_6  and  C3_8 
REMARK    6  A    between atoms: C2_7  and  C4_9 
REMARK    7  A    between atoms: C3_8  and  C5_10 
REMARK    8  A    between atoms: C4_9  and  C7_12 
REMARK    9  A    between atoms: C5_10  and  C6_11 
ROOT
HETATM    1  C4  UNK   900      32.137 -49.324 -59.784  1.00  0.00     0.204 C 
ENDROOT
BRANCH   1   2
HETATM    2  O2  UNK   900      32.358 -48.502 -58.638  1.00  0.00    -0.386 OA
HETATM    3  H16 UNK   900      31.764 -48.811 -57.932  1.00  0.00     0.210 HD
ENDBRANCH   1   2
BRANCH   1   4
HETATM    4  C2  UNK   900      30.651 -49.722 -59.790  1.00  0.00     0.153 C 
BRANCH   4   5
HETATM    5  O1  UNK   900      30.091 -49.520 -58.491  1.00  0.00    -0.393 OA
HETATM    6  H11 UNK   900      29.230 -49.084 -58.606  1.00  0.00     0.210 HD
ENDBRANCH   4   5
BRANCH   4   7
HETATM    7  C1  UNK   900      29.819 -48.949 -60.821  1.00  0.00     0.035 C 
BRANCH   7   8
HETATM    8  C3  UNK   900      30.660 -47.899 -61.561  1.00  0.00     0.002 C 
BRANCH   8   9
HETATM    9  C5  UNK   900      30.255 -46.458 -61.239  1.00  0.00    -0.000 C 
BRANCH   9  10
HETATM   10  C6  UNK   900      31.428 -45.475 -61.264  1.00  0.00    -0.005 C 
HETATM   11  C8  UNK   900      31.891 -45.129 -59.857  1.00  0.00     0.005 C 
ENDBRANCH   9  10
ENDBRANCH   8   9
ENDBRANCH   7   8
ENDBRANCH   4   7
ENDBRANCH   1   4
BRANCH   1  12
HETATM   12  C7  UNK   900      33.094 -50.474 -59.746  1.00  0.00     0.090 A 
HETATM   13  O3  UNK   900      32.644 -51.584 -58.988  1.00  0.00    -0.277 OA
HETATM   14  C11 UNK   900      33.412 -52.710 -58.860  1.00  0.00     0.290 A 
HETATM   15  O5  UNK   900      33.043 -53.681 -58.209  1.00  0.00    -0.260 OA
HETATM   16  C12 UNK   900      34.721 -52.714 -59.545  1.00  0.00     0.119 A 
HETATM   17  C10 UNK   900      35.114 -51.651 -60.253  1.00  0.00     0.076 A 
HETATM   18  C9  UNK   900      34.282 -50.486 -60.365  1.00  0.00     0.072 A 
BRANCH  17  19
HETATM   19  O4  UNK   900      36.330 -51.631 -60.901  1.00  0.00    -0.356 OA
HETATM   20  C13 UNK   900      36.474 -50.447 -61.662  1.00  0.00     0.210 C 
ENDBRANCH  17  19
ENDBRANCH   1  12
TORSDOF 9
ENDMDL
MODEL 2
REMARK VINA RESULT:      -5.7      3.252      4.504
REMARK  9 active torsions:
REMARK  status: ('A' for Active; 'I' for Inactive)
REMARK    1  A    between atoms: O1_1  and  C2_7 
REMARK    2  A    between atoms: O2_2  and  C4_9 
REMARK    3  A    between atoms: O4_4  and  C10_15 
REMARK    4  A    between atoms: C1_6  and  C2_7 
REMARK    5  A    between atoms: C1_6  and  C3_8 
REMARK    6  A    between atoms: C2_7  and  C4_9 
REMARK    7  A    between atoms: C3_8  and  C5_10 
REMARK    8  A    between atoms: C4_9  and  C7_12 
REMARK    9  A    between atoms: C5_10  and  C6_11 
ROOT
HETATM    1  C4  UNK   900      31.114 -49.766 -62.666  1.00  0.00     0.204 C 
ENDROOT
BRANCH   1   2
HETATM    2  O2  UNK   900      31.465 -50.256 -63.962  1.00  0.00    -0.386 OA
HETATM    3  H16 UNK   900      31.830 -49.512 -64.471  1.00  0.00     0.210 HD
ENDBRANCH   1   2
BRANCH   1   4
HETATM    4  C2  UNK   900      31.077 -48.230 -62.745  1.00  0.00     0.153 C 
BRANCH   4   5
HETATM    5  O1  UNK   900      32.242 -47.753 -63.422  1.00  0.00    -0.393 OA
HETATM    6  H11 UNK   900      32.490 -48.417 -64.087  1.00  0.00     0.210 HD
ENDBRANCH   4   5
BRANCH   4   7
HETATM    7  C1  UNK   900      29.829 -47.688 -63.452  1.00  0.00     0.035 C 
BRANCH   7   8
HETATM    8  C3  UNK   900      30.181 -46.602 -64.479  1.00  0.00     0.002 C 
BRANCH   8   9
HETATM    9  C5  UNK   900      29.681 -46.915 -65.892  1.00  0.00    -0.000 C 
BRANCH   9  10
HETATM   10  C6  UNK   900      28.156 -46.982 -65.998  1.00  0.00    -0.005 C 
HETATM   11  C8  UNK   900      27.715 -47.340 -67.409  1.00  0.00     0.005 C 
ENDBRANCH   9  10
ENDBRANCH   8   9
ENDBRANCH   7   8
ENDBRANCH   4   7
ENDBRANCH   1   4
BRANCH   1  12
HETATM   12  C7  UNK   900      32.075 -50.321 -61.662  1.00  0.00     0.090 A 
HETATM   13  O3  UNK   900      33.425 -49.943 -61.876  1.00  0.00    -0.277 OA
HETATM   14  C11 UNK   900      34.419 -50.375 -61.040  1.00  0.00     0.290 A 
HETATM   15  O5  UNK   900      35.593 -50.061 -61.207  1.00  0.00    -0.260 OA
HETATM   16  C12 UNK   900      34.023 -51.243 -59.913  1.00  0.00     0.119 A 
HETATM   17  C10 UNK   900      32.741 -51.578 -59.740  1.00  0.00     0.076 A 
HETATM   18  C9  UNK   900      31.724 -51.108 -60.638  1.00  0.00     0.072 A 
BRANCH  17  19
HETATM   19  O4  UNK   900      32.346 -52.387 -58.696  1.00  0.00    -0.356 OA
HETATM   20  C13 UNK   900      32.916 -53.676 -58.814  1.00  0.00     0.210 C 
ENDBRANCH  17  19
ENDBRANCH   1  12
TORSDOF 9
ENDMDL
MODEL 3
REMARK VINA RESULT:      -5.7      2.322      3.453
REMARK  9 active torsions:
REMARK  status: ('A' for Active; 'I' for Inactive)
REMARK    1  A    between atoms: O1_1  and  C2_7 
REMARK    2  A    between atoms: O2_2  and  C4_9 
REMARK    3  A    between atoms: O4_4  and  C10_15 
REMARK    4  A    between atoms: C1_6  and  C2_7 
REMARK    5  A    between atoms: C1_6  and  C3_8 
REMARK    6  A    between atoms: C2_7  and  C4_9 
REMARK    7  A    between atoms: C3_8  and  C5_10 
REMARK    8  A    between atoms: C4_9  and  C7_12 
REMARK    9  A    between atoms: C5_10  and  C6_11 
ROOT
HETATM    1  C4  UNK   900      30.828 -49.983 -62.971  1.00  0.00     0.204 C 
ENDROOT
BRANCH   1   2
HETATM    2  O2  UNK   900      31.418 -49.477 -64.170  1.00  0.00    -0.386 OA
HETATM    3  H16 UNK   900      30.697 -49.230 -64.774  1.00  0.00     0.210 HD
ENDBRANCH   1   2
BRANCH   1   4
HETATM    4  C2  UNK   900      29.754 -48.977 -62.522  1.00  0.00     0.153 C 
BRANCH   4   5
HETATM    5  O1  UNK   900      28.885 -49.592 -61.569  1.00  0.00    -0.393 OA
HETATM    6  H11 UNK   900      28.786 -50.526 -61.818  1.00  0.00     0.210 HD
ENDBRANCH   4   5
BRANCH   4   7
HETATM    7  C1  UNK   900      30.339 -47.696 -61.915  1.00  0.00     0.035 C 
BRANCH   7   8
HETATM    8  C3  UNK   900      30.139 -47.643 -60.394  1.00  0.00     0.002 C 
BRANCH   8   9
HETATM    9  C5  UNK   900      31.451 -47.556 -59.610  1.00  0.00    -0.000 C 
BRANCH   9  10
HETATM   10  C6  UNK   900      32.115 -46.180 -59.682  1.00  0.00    -0.005 C 
HETATM   11  C8  UNK   900      33.339 -46.202 -60.585  1.00  0.00     0.005 C 
ENDBRANCH   9  10
ENDBRANCH   8   9
ENDBRANCH   7   8
ENDBRANCH   4   7
ENDBRANCH   1   4
BRANCH   1  12
HETATM   12  C7  UNK   900      31.910 -50.236 -61.969  1.00  0.00     0.090 A 
HETATM   13  O3  UNK   900      33.148 -49.620 -62.279  1.00  0.00    -0.277 OA
HETATM   14  C11 UNK   900      34.233 -49.762 -61.456  1.00  0.00     0.290 A 
HETATM   15  O5  UNK   900      35.314 -49.239 -61.706  1.00  0.00    -0.260 OA
HETATM   16  C12 UNK   900      34.054 -50.579 -60.239  1.00  0.00     0.119 A 
HETATM   17  C10 UNK   900      32.872 -51.143 -59.976  1.00  0.00     0.076 A 
HETATM   18  C9  UNK   900      31.755 -50.974 -60.863  1.00  0.00     0.072 A 
BRANCH  17  19
HETATM   19  O4  UNK   900      32.678 -51.910 -58.847  1.00  0.00    -0.356 OA
HETATM   20  C13 UNK   900      33.596 -52.986 -58.805  1.00  0.00     0.210 C 
ENDBRANCH  17  19
ENDBRANCH   1  12
TORSDOF 9
ENDMDL
MODEL 4
REMARK VINA RESULT:      -5.7     11.356     13.946
REMARK  9 active torsions:
REMARK  status: ('A' for Active; 'I' for Inactive)
REMARK    1  A    between atoms: O1_1  and  C2_7 
REMARK    2  A    between atoms: O2_2  and  C4_9 
REMARK    3  A    between atoms: O4_4  and  C10_15 
REMARK    4  A    between atoms: C1_6  and  C2_7 
REMARK    5  A    between atoms: C1_6  and  C3_8 
REMARK    6  A    between atoms: C2_7  and  C4_9 
REMARK    7  A    between atoms: C3_8  and  C5_10 
REMARK    8  A    between atoms: C4_9  and  C7_12 
REMARK    9  A    between atoms: C5_10  and  C6_11 
ROOT
HETATM    1  C4  UNK   900      34.996 -37.540 -55.356  1.00  0.00     0.204 C 
ENDROOT
BRANCH   1   2
HETATM    2  O2  UNK   900      35.430 -36.566 -54.407  1.00  0.00    -0.386 OA
HETATM    3  H16 UNK   900      36.242 -36.156 -54.752  1.00  0.00     0.210 HD
ENDBRANCH   1   2
BRANCH   1   4
HETATM    4  C2  UNK   900      36.247 -38.264 -55.883  1.00  0.00     0.153 C 
BRANCH   4   5
HETATM    5  O1  UNK   900      37.181 -38.453 -54.818  1.00  0.00    -0.393 OA
HETATM    6  H11 UNK   900      37.542 -37.581 -54.585  1.00  0.00     0.210 HD
ENDBRANCH   4   5
BRANCH   4   7
HETATM    7  C1  UNK   900      35.937 -39.622 -56.525  1.00  0.00     0.035 C 
BRANCH   7   8
HETATM    8  C3  UNK   900      34.820 -40.364 -55.779  1.00  0.00     0.002 C 
BRANCH   8   9
HETATM    9  C5  UNK   900      35.338 -41.309 -54.691  1.00  0.00    -0.000 C 
BRANCH   9  10
HETATM   10  C6  UNK   900      36.637 -42.022 -55.069  1.00  0.00    -0.005 C 
HETATM   11  C8  UNK   900      37.696 -41.856 -53.990  1.00  0.00     0.005 C 
ENDBRANCH   9  10
ENDBRANCH   8   9
ENDBRANCH   7   8
ENDBRANCH   4   7
ENDBRANCH   1   4
BRANCH   1  12
HETATM   12  C7  UNK   900      34.175 -36.860 -56.406  1.00  0.00     0.090 A 
HETATM   13  O3  UNK   900      32.907 -37.453 -56.631  1.00  0.00    -0.277 OA
HETATM   14  C11 UNK   900      32.044 -36.942 -57.564  1.00  0.00     0.290 A 
HETATM   15  O5  UNK   900      30.943 -37.440 -57.775  1.00  0.00    -0.260 OA
HETATM   16  C12 UNK   900      32.492 -35.755 -58.317  1.00  0.00     0.119 A 
HETATM   17  C10 UNK   900      33.693 -35.220 -58.079  1.00  0.00     0.076 A 
HETATM   18  C9  UNK   900      34.573 -35.782 -57.093  1.00  0.00     0.072 A 
BRANCH  17  19
HETATM   19  O4  UNK   900      34.135 -34.111 -58.769  1.00  0.00    -0.356 OA
HETATM   20  C13 UNK   900      35.123 -34.468 -59.716  1.00  0.00     0.210 C 
ENDBRANCH  17  19
ENDBRANCH   1  12
TORSDOF 9
ENDMDL
MODEL 5
REMARK VINA RESULT:      -5.3      1.881      3.316
REMARK  9 active torsions:
REMARK  status: ('A' for Active; 'I' for Inactive)
REMARK    1  A    between atoms: O1_1  and  C2_7 
REMARK    2  A    between atoms: O2_2  and  C4_9 
REMARK    3  A    between atoms: O4_4  and  C10_15 
REMARK    4  A    between atoms: C1_6  and  C2_7 
REMARK    5  A    between atoms: C1_6  and  C3_8 
REMARK    6  A    between atoms: C2_7  and  C4_9 
REMARK    7  A    between atoms: C3_8  and  C5_10 
REMARK    8  A    between atoms: C4_9  and  C7_12 
REMARK    9  A    between atoms: C5_10  and  C6_11 
ROOT
HETATM    1  C4  UNK   900      32.600 -46.359 -60.141  1.00  0.00     0.204 C 
ENDROOT
BRANCH   1   2
HETATM    2  O2  UNK   900      32.209 -46.243 -58.772  1.00  0.00    -0.386 OA
HETATM    3  H16 UNK   900      32.092 -45.298 -58.576  1.00  0.00     0.210 HD
ENDBRANCH   1   2
BRANCH   1   4
HETATM    4  C2  UNK   900      31.462 -45.778 -60.999  1.00  0.00     0.153 C 
BRANCH   4   5
HETATM    5  O1  UNK   900      31.066 -44.507 -60.479  1.00  0.00    -0.393 OA
HETATM    6  H11 UNK   900      30.276 -44.646 -59.930  1.00  0.00     0.210 HD
ENDBRANCH   4   5
BRANCH   4   7
HETATM    7  C1  UNK   900      31.837 -45.620 -62.478  1.00  0.00     0.035 C 
BRANCH   7   8
HETATM    8  C3  UNK   900      31.171 -46.691 -63.352  1.00  0.00     0.002 C 
BRANCH   8   9
HETATM    9  C5  UNK   900      29.986 -47.383 -62.672  1.00  0.00    -0.000 C 
BRANCH   9  10
HETATM   10  C6  UNK   900      30.073 -48.909 -62.699  1.00  0.00    -0.005 C 
HETATM   11  C8  UNK   900      29.192 -49.534 -61.628  1.00  0.00     0.005 C 
ENDBRANCH   9  10
ENDBRANCH   8   9
ENDBRANCH   7   8
ENDBRANCH   4   7
ENDBRANCH   1   4
BRANCH   1  12
HETATM   12  C7  UNK   900      32.935 -47.789 -60.430  1.00  0.00     0.090 A 
HETATM   13  O3  UNK   900      32.124 -48.728 -59.746  1.00  0.00    -0.277 OA
HETATM   14  C11 UNK   900      32.313 -50.074 -59.909  1.00  0.00     0.290 A 
HETATM   15  O5  UNK   900      31.623 -50.905 -59.326  1.00  0.00    -0.260 OA
HETATM   16  C12 UNK   900      33.393 -50.498 -60.822  1.00  0.00     0.119 A 
HETATM   17  C10 UNK   900      34.138 -49.585 -61.452  1.00  0.00     0.076 A 
HETATM   18  C9  UNK   900      33.912 -48.180 -61.257  1.00  0.00     0.072 A 
BRANCH  17  19
HETATM   19  O4  UNK   900      35.152 -49.955 -62.310  1.00  0.00    -0.356 OA
HETATM   20  C13 UNK   900      36.099 -50.771 -61.648  1.00  0.00     0.210 C 
ENDBRANCH  17  19
ENDBRANCH   1  12
TORSDOF 9
ENDMDL
MODEL 6
REMARK VINA RESULT:      -5.0      2.531      3.787
REMARK  9 active torsions:
REMARK  status: ('A' for Active; 'I' for Inactive)
REMARK    1  A    between atoms: O1_1  and  C2_7 
REMARK    2  A    between atoms: O2_2  and  C4_9 
REMARK    3  A    between atoms: O4_4  and  C10_15 
REMARK    4  A    between atoms: C1_6  and  C2_7 
REMARK    5  A    between atoms: C1_6  and  C3_8 
REMARK    6  A    between atoms: C2_7  and  C4_9 
REMARK    7  A    between atoms: C3_8  and  C5_10 
REMARK    8  A    between atoms: C4_9  and  C7_12 
REMARK    9  A    between atoms: C5_10  and  C6_11 
ROOT
HETATM    1  C4  UNK   900      32.286 -46.431 -60.195  1.00  0.00     0.204 C 
ENDROOT
BRANCH   1   2
HETATM    2  O2  UNK   900      32.206 -46.232 -58.783  1.00  0.00    -0.386 OA
HETATM    3  H16 UNK   900      33.103 -46.330 -58.419  1.00  0.00     0.210 HD
ENDBRANCH   1   2
BRANCH   1   4
HETATM    4  C2  UNK   900      31.168 -45.596 -60.844  1.00  0.00     0.153 C 
BRANCH   4   5
HETATM    5  O1  UNK   900      31.305 -44.226 -60.464  1.00  0.00    -0.393 OA
HETATM    6  H11 UNK   900      30.437 -43.802 -60.570  1.00  0.00     0.210 HD
ENDBRANCH   4   5
BRANCH   4   7
HETATM    7  C1  UNK   900      31.148 -45.693 -62.375  1.00  0.00     0.035 C 
BRANCH   7   8
HETATM    8  C3  UNK   900      29.859 -46.350 -62.888  1.00  0.00     0.002 C 
BRANCH   8   9
HETATM    9  C5  UNK   900      29.596 -46.094 -64.375  1.00  0.00    -0.000 C 
BRANCH   9  10
HETATM   10  C6  UNK   900      30.704 -45.291 -65.061  1.00  0.00    -0.005 C 
HETATM   11  C8  UNK   900      30.191 -44.601 -66.316  1.00  0.00     0.005 C 
ENDBRANCH   9  10
ENDBRANCH   8   9
ENDBRANCH   7   8
ENDBRANCH   4   7
ENDBRANCH   1   4
BRANCH   1  12
HETATM   12  C7  UNK   900      32.221 -47.898 -60.482  1.00  0.00     0.090 A 
HETATM   13  O3  UNK   900      30.932 -48.467 -60.326  1.00  0.00    -0.277 OA
HETATM   14  C11 UNK   900      30.717 -49.800 -60.552  1.00  0.00     0.290 A 
HETATM   15  O5  UNK   900      29.611 -50.314 -60.422  1.00  0.00    -0.260 OA
HETATM   16  C12 UNK   900      31.881 -50.610 -60.964  1.00  0.00     0.119 A 
HETATM   17  C10 UNK   900      33.082 -50.041 -61.103  1.00  0.00     0.076 A 
HETATM   18  C9  UNK   900      33.271 -48.639 -60.857  1.00  0.00     0.072 A 
BRANCH  17  19
HETATM   19  O4  UNK   900      34.183 -50.775 -61.487  1.00  0.00    -0.356 OA
HETATM   20  C13 UNK   900      35.367 -50.012 -61.357  1.00  0.00     0.210 C 
ENDBRANCH  17  19
ENDBRANCH   1  12
TORSDOF 9
ENDMDL
MODEL 7
REMARK VINA RESULT:      -5.0     30.989     31.923
REMARK  9 active torsions:
REMARK  status: ('A' for Active; 'I' for Inactive)
REMARK    1  A    between atoms: O1_1  and  C2_7 
REMARK    2  A    between atoms: O2_2  and  C4_9 
REMARK    3  A    between atoms: O4_4  and  C10_15 
REMARK    4  A    between atoms: C1_6  and  C2_7 
REMARK    5  A    between atoms: C1_6  and  C3_8 
REMARK    6  A    between atoms: C2_7  and  C4_9 
REMARK    7  A    between atoms: C3_8  and  C5_10 
REMARK    8  A    between atoms: C4_9  and  C7_12 
REMARK    9  A    between atoms: C5_10  and  C6_11 
ROOT
HETATM    1  C4  UNK   900      24.326 -22.404 -72.452  1.00  0.00     0.204 C 
ENDROOT
BRANCH   1   2
HETATM    2  O2  UNK   900      23.430 -23.211 -71.686  1.00  0.00    -0.386 OA
HETATM    3  H16 UNK   900      22.932 -22.621 -71.095  1.00  0.00     0.210 HD
ENDBRANCH   1   2
BRANCH   1   4
HETATM    4  C2  UNK   900      23.700 -21.004 -72.574  1.00  0.00     0.153 C 
BRANCH   4   5
HETATM    5  O1  UNK   900      22.357 -21.030 -72.087  1.00  0.00    -0.393 OA
HETATM    6  H11 UNK   900      22.333 -21.626 -71.319  1.00  0.00     0.210 HD
ENDBRANCH   4   5
BRANCH   4   7
HETATM    7  C1  UNK   900      24.484 -19.921 -71.822  1.00  0.00     0.035 C 
BRANCH   7   8
HETATM    8  C3  UNK   900      25.508 -19.224 -72.729  1.00  0.00     0.002 C 
BRANCH   8   9
HETATM    9  C5  UNK   900      26.954 -19.380 -72.247  1.00  0.00    -0.000 C 
BRANCH   9  10
HETATM   10  C6  UNK   900      27.783 -20.336 -73.106  1.00  0.00    -0.005 C 
HETATM   11  C8  UNK   900      29.205 -20.462 -72.579  1.00  0.00     0.005 C 
ENDBRANCH   9  10
ENDBRANCH   8   9
ENDBRANCH   7   8
ENDBRANCH   4   7
ENDBRANCH   1   4
BRANCH   1  12
HETATM   12  C7  UNK   900      24.596 -23.086 -73.757  1.00  0.00     0.090 A 
HETATM   13  O3  UNK   900      23.507 -23.843 -74.256  1.00  0.00    -0.277 OA
HETATM   14  C11 UNK   900      23.604 -24.525 -75.439  1.00  0.00     0.290 A 
HETATM   15  O5  UNK   900      22.675 -25.187 -75.889  1.00  0.00    -0.260 OA
HETATM   16  C12 UNK   900      24.887 -24.434 -76.166  1.00  0.00     0.119 A 
HETATM   17  C10 UNK   900      25.893 -23.710 -75.667  1.00  0.00     0.076 A 
HETATM   18  C9  UNK   900      25.755 -23.007 -74.422  1.00  0.00     0.072 A 
BRANCH  17  19
HETATM   19  O4  UNK   900      27.099 -23.609 -76.326  1.00  0.00    -0.356 OA
HETATM   20  C13 UNK   900      27.046 -22.607 -77.323  1.00  0.00     0.210 C 
ENDBRANCH  17  19
ENDBRANCH   1  12
TORSDOF 9
ENDMDL
MODEL 8
REMARK VINA RESULT:      -4.8     33.296     35.315
REMARK  9 active torsions:
REMARK  status: ('A' for Active; 'I' for Inactive)
REMARK    1  A    between atoms: O1_1  and  C2_7 
REMARK    2  A    between atoms: O2_2  and  C4_9 
REMARK    3  A    between atoms: O4_4  and  C10_15 
REMARK    4  A    between atoms: C1_6  and  C2_7 
REMARK    5  A    between atoms: C1_6  and  C3_8 
REMARK    6  A    between atoms: C2_7  and  C4_9 
REMARK    7  A    between atoms: C3_8  and  C5_10 
REMARK    8  A    between atoms: C4_9  and  C7_12 
REMARK    9  A    between atoms: C5_10  and  C6_11 
ROOT
HETATM    1  C4  UNK   900       5.408 -69.829 -52.784  1.00  0.00     0.204 C 
ENDROOT
BRANCH   1   2
HETATM    2  O2  UNK   900       6.166 -70.017 -53.980  1.00  0.00    -0.386 OA
HETATM    3  H16 UNK   900       6.891 -69.369 -53.977  1.00  0.00     0.210 HD
ENDBRANCH   1   2
BRANCH   1   4
HETATM    4  C2  UNK   900       3.965 -70.277 -53.075  1.00  0.00     0.153 C 
BRANCH   4   5
HETATM    5  O1  UNK   900       3.568 -69.820 -54.369  1.00  0.00    -0.393 OA
HETATM    6  H11 UNK   900       4.341 -69.883 -54.954  1.00  0.00     0.210 HD
ENDBRANCH   4   5
BRANCH   4   7
HETATM    7  C1  UNK   900       3.774 -71.797 -53.000  1.00  0.00     0.035 C 
BRANCH   7   8
HETATM    8  C3  UNK   900       3.298 -72.378 -54.338  1.00  0.00     0.002 C 
BRANCH   8   9
HETATM    9  C5  UNK   900       2.217 -73.452 -54.185  1.00  0.00    -0.000 C 
BRANCH   9  10
HETATM   10  C6  UNK   900       2.069 -74.349 -55.416  1.00  0.00    -0.005 C 
HETATM   11  C8  UNK   900       1.903 -75.808 -55.021  1.00  0.00     0.005 C 
ENDBRANCH   9  10
ENDBRANCH   8   9
ENDBRANCH   7   8
ENDBRANCH   4   7
ENDBRANCH   1   4
BRANCH   1  12
HETATM   12  C7  UNK   900       5.546 -68.406 -52.342  1.00  0.00     0.090 A 
HETATM   13  O3  UNK   900       4.316 -67.719 -52.193  1.00  0.00    -0.277 OA
HETATM   14  C11 UNK   900       4.282 -66.409 -51.796  1.00  0.00     0.290 A 
HETATM   15  O5  UNK   900       3.229 -65.795 -51.661  1.00  0.00    -0.260 OA
HETATM   16  C12 UNK   900       5.578 -65.751 -51.532  1.00  0.00     0.119 A 
HETATM   17  C10 UNK   900       6.719 -66.429 -51.681  1.00  0.00     0.076 A 
HETATM   18  C9  UNK   900       6.717 -67.803 -52.100  1.00  0.00     0.072 A 
BRANCH  17  19
HETATM   19  O4  UNK   900       7.941 -65.838 -51.441  1.00  0.00    -0.356 OA
HETATM   20  C13 UNK   900       8.845 -66.765 -50.869  1.00  0.00     0.210 C 
ENDBRANCH  17  19
ENDBRANCH   1  12
TORSDOF 9
ENDMDL
MODEL 9
REMARK VINA RESULT:      -4.8     11.259     14.327
REMARK  9 active torsions:
REMARK  status: ('A' for Active; 'I' for Inactive)
REMARK    1  A    between atoms: O1_1  and  C2_7 
REMARK    2  A    between atoms: O2_2  and  C4_9 
REMARK    3  A    between atoms: O4_4  and  C10_15 
REMARK    4  A    between atoms: C1_6  and  C2_7 
REMARK    5  A    between atoms: C1_6  and  C3_8 
REMARK    6  A    between atoms: C2_7  and  C4_9 
REMARK    7  A    between atoms: C3_8  and  C5_10 
REMARK    8  A    between atoms: C4_9  and  C7_12 
REMARK    9  A    between atoms: C5_10  and  C6_11 
ROOT
HETATM    1  C4  UNK   900      34.801 -36.899 -55.584  1.00  0.00     0.204 C 
ENDROOT
BRANCH   1   2
HETATM    2  O2  UNK   900      36.072 -36.978 -54.938  1.00  0.00    -0.386 OA
HETATM    3  H16 UNK   900      35.989 -36.557 -54.066  1.00  0.00     0.210 HD
ENDBRANCH   1   2
BRANCH   1   4
HETATM    4  C2  UNK   900      34.202 -38.316 -55.604  1.00  0.00     0.153 C 
BRANCH   4   5
HETATM    5  O1  UNK   900      33.161 -38.387 -56.581  1.00  0.00    -0.393 OA
HETATM    6  H11 UNK   900      33.483 -37.950 -57.388  1.00  0.00     0.210 HD
ENDBRANCH   4   5
BRANCH   4   7
HETATM    7  C1  UNK   900      35.237 -39.409 -55.896  1.00  0.00     0.035 C 
BRANCH   7   8
HETATM    8  C3  UNK   900      34.964 -40.684 -55.086  1.00  0.00     0.002 C 
BRANCH   8   9
HETATM    9  C5  UNK   900      36.126 -41.682 -55.111  1.00  0.00    -0.000 C 
BRANCH   9  10
HETATM   10  C6  UNK   900      37.163 -41.437 -54.013  1.00  0.00    -0.005 C 
HETATM   11  C8  UNK   900      38.470 -42.153 -54.317  1.00  0.00     0.005 C 
ENDBRANCH   9  10
ENDBRANCH   8   9
ENDBRANCH   7   8
ENDBRANCH   4   7
ENDBRANCH   1   4
BRANCH   1  12
HETATM   12  C7  UNK   900      34.981 -36.274 -56.932  1.00  0.00     0.090 A 
HETATM   13  O3  UNK   900      35.911 -36.944 -57.766  1.00  0.00    -0.277 OA
HETATM   14  C11 UNK   900      36.183 -36.488 -59.028  1.00  0.00     0.290 A 
HETATM   15  O5  UNK   900      36.985 -37.051 -59.766  1.00  0.00    -0.260 OA
HETATM   16  C12 UNK   900      35.466 -35.278 -59.477  1.00  0.00     0.119 A 
HETATM   17  C10 UNK   900      34.594 -34.673 -58.666  1.00  0.00     0.076 A 
HETATM   18  C9  UNK   900      34.334 -35.178 -57.347  1.00  0.00     0.072 A 
BRANCH  17  19
HETATM   19  O4  UNK   900      33.912 -33.542 -59.061  1.00  0.00    -0.356 OA
HETATM   20  C13 UNK   900      34.350 -32.410 -58.335  1.00  0.00     0.210 C 
ENDBRANCH  17  19
ENDBRANCH   1  12
TORSDOF 9
ENDMDL
