MODEL 1
REMARK VINA RESULT:      -6.5      0.000      0.000
REMARK  3 active torsions:
REMARK  status: ('A' for Active; 'I' for Inactive)
REMARK    1  A    between atoms: O3_3  and  C8_13 
REMARK    2  A    between atoms: O5_5  and  C12_17 
REMARK    3  A    between atoms: C3_8  and  C8_13 
ROOT
HETATM    1  O1  UNK   900      37.296 -36.527 -57.110  1.00  0.00    -0.344 OA
HETATM    2  O2  UNK   900      33.414 -35.589 -57.943  1.00  0.00    -0.292 OA
HETATM    3  C1  UNK   900      34.948 -36.437 -56.308  1.00  0.00     0.104 C 
HETATM    4  C2  UNK   900      36.437 -36.319 -55.985  1.00  0.00     0.141 C 
HETATM    5  C3  UNK   900      34.650 -37.946 -56.332  1.00  0.00     0.098 C 
HETATM    6  C4  UNK   900      36.653 -37.487 -55.029  1.00  0.00     0.034 C 
HETATM    7  C5  UNK   900      35.866 -38.622 -55.682  1.00  0.00     0.019 C 
HETATM    8  C6  UNK   900      34.581 -35.761 -57.607  1.00  0.00     0.170 C 
HETATM    9  C7  UNK   900      35.688 -35.333 -58.479  1.00  0.00     0.046 A 
HETATM   10  C9  UNK   900      36.986 -35.745 -58.185  1.00  0.00     0.083 A 
HETATM   11  C10 UNK   900      35.434 -34.562 -59.618  1.00  0.00     0.054 A 
HETATM   12  C11 UNK   900      38.033 -35.410 -59.045  1.00  0.00     0.040 A 
HETATM   13  C12 UNK   900      36.487 -34.210 -60.463  1.00  0.00     0.066 A 
HETATM   14  C13 UNK   900      37.784 -34.637 -60.179  1.00  0.00     0.039 A 
ENDROOT
BRANCH   5  15
HETATM   15  C8  UNK   900      33.405 -38.254 -55.553  1.00  0.00     0.144 C 
HETATM   16  O4  UNK   900      32.377 -37.593 -55.582  1.00  0.00    -0.650 OA
BRANCH  15  17
HETATM   17  O3  UNK   900      33.572 -39.371 -54.805  1.00  0.00    -0.776 OA
HETATM   18  H10 UNK   900      33.935 -40.115 -55.332  1.00  0.00     0.167 HD
ENDBRANCH  15  17
ENDBRANCH   5  15
BRANCH  13  19
HETATM   19  O5  UNK   900      36.247 -33.458 -61.571  1.00  0.00    -0.361 OA
HETATM   20  H12 UNK   900      36.324 -32.516 -61.337  1.00  0.00     0.217 HD
ENDBRANCH  13  19
TORSDOF 3
ENDMDL
MODEL 2
REMARK VINA RESULT:      -6.4      2.998      5.348
REMARK  3 active torsions:
REMARK  status: ('A' for Active; 'I' for Inactive)
REMARK    1  A    between atoms: O3_3  and  C8_13 
REMARK    2  A    between atoms: O5_5  and  C12_17 
REMARK    3  A    between atoms: C3_8  and  C8_13 
ROOT
HETATM    1  O1  UNK   900      36.951 -38.106 -56.724  1.00  0.00    -0.344 OA
HETATM    2  O2  UNK   900      34.986 -41.047 -54.692  1.00  0.00    -0.292 OA
HETATM    3  C1  UNK   900      37.116 -40.113 -55.271  1.00  0.00     0.104 C 
HETATM    4  C2  UNK   900      37.682 -38.752 -55.678  1.00  0.00     0.141 C 
HETATM    5  C3  UNK   900      37.633 -41.106 -56.326  1.00  0.00     0.098 C 
HETATM    6  C4  UNK   900      39.047 -39.128 -56.244  1.00  0.00     0.034 C 
HETATM    7  C5  UNK   900      38.747 -40.369 -57.083  1.00  0.00     0.019 C 
HETATM    8  C6  UNK   900      35.609 -40.109 -55.178  1.00  0.00     0.170 C 
HETATM    9  C7  UNK   900      34.903 -38.936 -55.723  1.00  0.00     0.046 A 
HETATM   10  C9  UNK   900      35.614 -38.001 -56.471  1.00  0.00     0.083 A 
HETATM   11  C10 UNK   900      33.526 -38.788 -55.532  1.00  0.00     0.054 A 
HETATM   12  C11 UNK   900      34.943 -36.927 -57.057  1.00  0.00     0.040 A 
HETATM   13  C12 UNK   900      32.864 -37.700 -56.100  1.00  0.00     0.066 A 
HETATM   14  C13 UNK   900      33.570 -36.773 -56.864  1.00  0.00     0.039 A 
ENDROOT
BRANCH   5  15
HETATM   15  C8  UNK   900      38.176 -42.341 -55.671  1.00  0.00     0.144 C 
HETATM   16  O4  UNK   900      39.357 -42.652 -55.628  1.00  0.00    -0.650 OA
BRANCH  15  17
HETATM   17  O3  UNK   900      37.174 -43.076 -55.129  1.00  0.00    -0.776 OA
HETATM   18  H10 UNK   900      36.602 -43.480 -55.817  1.00  0.00     0.167 HD
ENDBRANCH  15  17
ENDBRANCH   5  15
BRANCH  13  19
HETATM   19  O5  UNK   900      31.524 -37.549 -55.916  1.00  0.00    -0.361 OA
HETATM   20  H12 UNK   900      31.342 -37.478 -54.962  1.00  0.00     0.217 HD
ENDBRANCH  13  19
TORSDOF 3
ENDMDL
MODEL 3
REMARK VINA RESULT:      -6.0     12.526     14.423
REMARK  3 active torsions:
REMARK  status: ('A' for Active; 'I' for Inactive)
REMARK    1  A    between atoms: O3_3  and  C8_13 
REMARK    2  A    between atoms: O5_5  and  C12_17 
REMARK    3  A    between atoms: C3_8  and  C8_13 
ROOT
HETATM    1  O1  UNK   900      33.118 -47.130 -62.189  1.00  0.00    -0.344 OA
HETATM    2  O2  UNK   900      30.190 -49.709 -63.378  1.00  0.00    -0.292 OA
HETATM    3  C1  UNK   900      31.526 -47.810 -63.969  1.00  0.00     0.104 C 
HETATM    4  C2  UNK   900      32.889 -47.226 -63.598  1.00  0.00     0.141 C 
HETATM    5  C3  UNK   900      30.527 -46.649 -63.825  1.00  0.00     0.098 C 
HETATM    6  C4  UNK   900      32.787 -45.803 -64.137  1.00  0.00     0.034 C 
HETATM    7  C5  UNK   900      31.378 -45.375 -63.728  1.00  0.00     0.019 C 
HETATM    8  C6  UNK   900      31.152 -48.997 -63.115  1.00  0.00     0.170 C 
HETATM    9  C7  UNK   900      31.979 -49.256 -61.923  1.00  0.00     0.046 A 
HETATM   10  C9  UNK   900      32.914 -48.304 -61.523  1.00  0.00     0.083 A 
HETATM   11  C10 UNK   900      31.794 -50.422 -61.174  1.00  0.00     0.054 A 
HETATM   12  C11 UNK   900      33.649 -48.502 -60.353  1.00  0.00     0.040 A 
HETATM   13  C12 UNK   900      32.548 -50.626 -60.018  1.00  0.00     0.066 A 
HETATM   14  C13 UNK   900      33.471 -49.666 -59.606  1.00  0.00     0.039 A 
ENDROOT
BRANCH   5  15
HETATM   15  C8  UNK   900      29.619 -46.579 -65.017  1.00  0.00     0.144 C 
HETATM   16  O4  UNK   900      29.601 -47.385 -65.935  1.00  0.00    -0.650 OA
BRANCH  15  17
HETATM   17  O3  UNK   900      28.813 -45.492 -64.942  1.00  0.00    -0.776 OA
HETATM   18  H10 UNK   900      29.237 -44.754 -64.453  1.00  0.00     0.167 HD
ENDBRANCH  15  17
ENDBRANCH   5  15
BRANCH  13  19
HETATM   19  O5  UNK   900      32.374 -51.760 -59.286  1.00  0.00    -0.361 OA
HETATM   20  H12 UNK   900      31.795 -51.563 -58.529  1.00  0.00     0.217 HD
ENDBRANCH  13  19
TORSDOF 3
ENDMDL
MODEL 4
REMARK VINA RESULT:      -5.8     33.922     35.895
REMARK  3 active torsions:
REMARK  status: ('A' for Active; 'I' for Inactive)
REMARK    1  A    between atoms: O3_3  and  C8_13 
REMARK    2  A    between atoms: O5_5  and  C12_17 
REMARK    3  A    between atoms: C3_8  and  C8_13 
ROOT
HETATM    1  O1  UNK   900      11.937 -24.310 -79.477  1.00  0.00    -0.344 OA
HETATM    2  O2  UNK   900      11.576 -25.994 -83.175  1.00  0.00    -0.292 OA
HETATM    3  C1  UNK   900      12.443 -24.157 -81.903  1.00  0.00     0.104 C 
HETATM    4  C2  UNK   900      12.881 -23.884 -80.464  1.00  0.00     0.141 C 
HETATM    5  C3  UNK   900      11.467 -23.023 -82.259  1.00  0.00     0.098 C 
HETATM    6  C4  UNK   900      12.919 -22.360 -80.424  1.00  0.00     0.034 C 
HETATM    7  C5  UNK   900      11.647 -21.958 -81.168  1.00  0.00     0.019 C 
HETATM    8  C6  UNK   900      11.820 -25.522 -82.070  1.00  0.00     0.170 C 
HETATM    9  C7  UNK   900      11.487 -26.265 -80.842  1.00  0.00     0.046 A 
HETATM   10  C9  UNK   900      11.559 -25.615 -79.612  1.00  0.00     0.083 A 
HETATM   11  C10 UNK   900      11.056 -27.593 -80.914  1.00  0.00     0.054 A 
HETATM   12  C11 UNK   900      11.173 -26.284 -78.450  1.00  0.00     0.040 A 
HETATM   13  C12 UNK   900      10.693 -28.265 -79.746  1.00  0.00     0.066 A 
HETATM   14  C13 UNK   900      10.748 -27.611 -78.517  1.00  0.00     0.039 A 
ENDROOT
BRANCH   5  15
HETATM   15  C8  UNK   900      11.790 -22.448 -83.607  1.00  0.00     0.144 C 
HETATM   16  O4  UNK   900      12.299 -21.354 -83.800  1.00  0.00    -0.650 OA
BRANCH  15  17
HETATM   17  O3  UNK   900      11.438 -23.310 -84.592  1.00  0.00    -0.776 OA
HETATM   18  H10 UNK   900      11.003 -24.114 -84.237  1.00  0.00     0.167 HD
ENDBRANCH  15  17
ENDBRANCH   5  15
BRANCH  13  19
HETATM   19  O5  UNK   900      10.276 -29.559 -79.809  1.00  0.00    -0.361 OA
HETATM   20  H12 UNK   900      10.641 -29.971 -80.612  1.00  0.00     0.217 HD
ENDBRANCH  13  19
TORSDOF 3
ENDMDL
MODEL 5
REMARK VINA RESULT:      -5.7     10.316     12.111
REMARK  3 active torsions:
REMARK  status: ('A' for Active; 'I' for Inactive)
REMARK    1  A    between atoms: O3_3  and  C8_13 
REMARK    2  A    between atoms: O5_5  and  C12_17 
REMARK    3  A    between atoms: C3_8  and  C8_13 
ROOT
HETATM    1  O1  UNK   900      33.420 -44.530 -62.068  1.00  0.00    -0.344 OA
HETATM    2  O2  UNK   900      30.360 -45.622 -64.534  1.00  0.00    -0.292 OA
HETATM    3  C1  UNK   900      32.500 -44.557 -64.374  1.00  0.00     0.104 C 
HETATM    4  C2  UNK   900      33.727 -44.612 -63.462  1.00  0.00     0.141 C 
HETATM    5  C3  UNK   900      32.133 -43.067 -64.480  1.00  0.00     0.098 C 
HETATM    6  C4  UNK   900      34.465 -43.332 -63.839  1.00  0.00     0.034 C 
HETATM    7  C5  UNK   900      33.345 -42.298 -63.934  1.00  0.00     0.019 C 
HETATM    8  C6  UNK   900      31.356 -45.393 -63.855  1.00  0.00     0.170 C 
HETATM    9  C7  UNK   900      31.466 -45.908 -62.480  1.00  0.00     0.046 A 
HETATM   10  C9  UNK   900      32.491 -45.443 -61.659  1.00  0.00     0.083 A 
HETATM   11  C10 UNK   900      30.525 -46.817 -61.987  1.00  0.00     0.054 A 
HETATM   12  C11 UNK   900      32.562 -45.865 -60.330  1.00  0.00     0.040 A 
HETATM   13  C12 UNK   900      30.613 -47.253 -60.665  1.00  0.00     0.066 A 
HETATM   14  C13 UNK   900      31.628 -46.775 -59.837  1.00  0.00     0.039 A 
ENDROOT
BRANCH   5  15
HETATM   15  C8  UNK   900      31.874 -42.685 -65.908  1.00  0.00     0.144 C 
HETATM   16  O4  UNK   900      32.470 -43.135 -66.875  1.00  0.00    -0.650 OA
BRANCH  15  17
HETATM   17  O3  UNK   900      30.883 -41.763 -65.984  1.00  0.00    -0.776 OA
HETATM   18  H10 UNK   900      30.847 -41.197 -65.184  1.00  0.00     0.167 HD
ENDBRANCH  15  17
ENDBRANCH   5  15
BRANCH  13  19
HETATM   19  O5  UNK   900      29.701 -48.139 -60.180  1.00  0.00    -0.361 OA
HETATM   20  H12 UNK   900      29.936 -49.033 -60.484  1.00  0.00     0.217 HD
ENDBRANCH  13  19
TORSDOF 3
ENDMDL
MODEL 6
REMARK VINA RESULT:      -5.5     15.171     17.472
REMARK  3 active torsions:
REMARK  status: ('A' for Active; 'I' for Inactive)
REMARK    1  A    between atoms: O3_3  and  C8_13 
REMARK    2  A    between atoms: O5_5  and  C12_17 
REMARK    3  A    between atoms: C3_8  and  C8_13 
ROOT
HETATM    1  O1  UNK   900      20.525 -31.626 -47.607  1.00  0.00    -0.344 OA
HETATM    2  O2  UNK   900      22.683 -30.947 -51.002  1.00  0.00    -0.292 OA
HETATM    3  C1  UNK   900      21.925 -32.582 -49.422  1.00  0.00     0.104 C 
HETATM    4  C2  UNK   900      20.759 -32.759 -48.448  1.00  0.00     0.141 C 
HETATM    5  C3  UNK   900      23.195 -32.855 -48.599  1.00  0.00     0.098 C 
HETATM    6  C4  UNK   900      21.257 -33.890 -47.555  1.00  0.00     0.034 C 
HETATM    7  C5  UNK   900      22.716 -33.518 -47.299  1.00  0.00     0.019 C 
HETATM    8  C6  UNK   900      21.941 -31.215 -50.063  1.00  0.00     0.170 C 
HETATM    9  C7  UNK   900      21.042 -30.195 -49.497  1.00  0.00     0.046 A 
HETATM   10  C9  UNK   900      20.387 -30.455 -48.296  1.00  0.00     0.083 A 
HETATM   11  C10 UNK   900      20.884 -28.959 -50.133  1.00  0.00     0.054 A 
HETATM   12  C11 UNK   900      19.592 -29.469 -47.710  1.00  0.00     0.040 A 
HETATM   13  C12 UNK   900      20.071 -27.984 -49.555  1.00  0.00     0.066 A 
HETATM   14  C13 UNK   900      19.429 -28.237 -48.343  1.00  0.00     0.039 A 
ENDROOT
BRANCH   5  15
HETATM   15  C8  UNK   900      24.122 -33.772 -49.341  1.00  0.00     0.144 C 
HETATM   16  O4  UNK   900      23.771 -34.645 -50.120  1.00  0.00    -0.650 OA
BRANCH  15  17
HETATM   17  O3  UNK   900      25.413 -33.502 -49.029  1.00  0.00    -0.776 OA
HETATM   18  H10 UNK   900      25.736 -32.690 -49.474  1.00  0.00     0.167 HD
ENDBRANCH  15  17
ENDBRANCH   5  15
BRANCH  13  19
HETATM   19  O5  UNK   900      19.912 -26.781 -50.170  1.00  0.00    -0.361 OA
HETATM   20  H12 UNK   900      19.457 -26.172 -49.562  1.00  0.00     0.217 HD
ENDBRANCH  13  19
TORSDOF 3
ENDMDL
MODEL 7
REMARK VINA RESULT:      -5.4     20.003     21.192
REMARK  3 active torsions:
REMARK  status: ('A' for Active; 'I' for Inactive)
REMARK    1  A    between atoms: O3_3  and  C8_13 
REMARK    2  A    between atoms: O5_5  and  C12_17 
REMARK    3  A    between atoms: C3_8  and  C8_13 
ROOT
HETATM    1  O1  UNK   900      36.060 -49.501 -73.642  1.00  0.00    -0.344 OA
HETATM    2  O2  UNK   900      33.180 -47.177 -75.356  1.00  0.00    -0.292 OA
HETATM    3  C1  UNK   900      35.445 -47.287 -74.580  1.00  0.00     0.104 C 
HETATM    4  C2  UNK   900      36.517 -48.355 -74.366  1.00  0.00     0.141 C 
HETATM    5  C3  UNK   900      35.377 -46.500 -73.260  1.00  0.00     0.098 C 
HETATM    6  C4  UNK   900      37.521 -47.630 -73.477  1.00  0.00     0.034 C 
HETATM    7  C5  UNK   900      36.633 -46.898 -72.472  1.00  0.00     0.019 C 
HETATM    8  C6  UNK   900      34.109 -47.875 -74.965  1.00  0.00     0.170 C 
HETATM    9  C7  UNK   900      33.951 -49.333 -74.827  1.00  0.00     0.046 A 
HETATM   10  C9  UNK   900      34.934 -50.066 -74.168  1.00  0.00     0.083 A 
HETATM   11  C10 UNK   900      32.803 -49.969 -75.311  1.00  0.00     0.054 A 
HETATM   12  C11 UNK   900      34.760 -51.436 -73.963  1.00  0.00     0.040 A 
HETATM   13  C12 UNK   900      32.644 -51.342 -75.125  1.00  0.00     0.066 A 
HETATM   14  C13 UNK   900      33.619 -52.074 -74.449  1.00  0.00     0.039 A 
ENDROOT
BRANCH   5  15
HETATM   15  C8  UNK   900      35.373 -45.023 -73.522  1.00  0.00     0.144 C 
HETATM   16  O4  UNK   900      36.341 -44.287 -73.413  1.00  0.00    -0.650 OA
BRANCH  15  17
HETATM   17  O3  UNK   900      34.138 -44.608 -73.899  1.00  0.00    -0.776 OA
HETATM   18  H10 UNK   900      33.448 -45.274 -73.692  1.00  0.00     0.167 HD
ENDBRANCH  15  17
ENDBRANCH   5  15
BRANCH  13  19
HETATM   19  O5  UNK   900      31.530 -51.967 -75.595  1.00  0.00    -0.361 OA
HETATM   20  H12 UNK   900      31.797 -52.765 -76.083  1.00  0.00     0.217 HD
ENDBRANCH  13  19
TORSDOF 3
ENDMDL
MODEL 8
REMARK VINA RESULT:      -5.3     40.735     41.744
REMARK  3 active torsions:
REMARK  status: ('A' for Active; 'I' for Inactive)
REMARK    1  A    between atoms: O3_3  and  C8_13 
REMARK    2  A    between atoms: O5_5  and  C12_17 
REMARK    3  A    between atoms: C3_8  and  C8_13 
ROOT
HETATM    1  O1  UNK   900       2.465 -61.958 -63.564  1.00  0.00    -0.344 OA
HETATM    2  O2  UNK   900       2.918 -60.890 -59.653  1.00  0.00    -0.292 OA
HETATM    3  C1  UNK   900       1.470 -60.877 -61.563  1.00  0.00     0.104 C 
HETATM    4  C2  UNK   900       1.263 -61.705 -62.832  1.00  0.00     0.141 C 
HETATM    5  C3  UNK   900       1.562 -59.416 -62.034  1.00  0.00     0.098 C 
HETATM    6  C4  UNK   900       0.402 -60.777 -63.683  1.00  0.00     0.034 C 
HETATM    7  C5  UNK   900       1.057 -59.412 -63.484  1.00  0.00     0.019 C 
HETATM    8  C6  UNK   900       2.690 -61.306 -60.784  1.00  0.00     0.170 C 
HETATM    9  C7  UNK   900       3.622 -62.233 -61.450  1.00  0.00     0.046 A 
HETATM   10  C9  UNK   900       3.461 -62.504 -62.806  1.00  0.00     0.083 A 
HETATM   11  C10 UNK   900       4.686 -62.797 -60.739  1.00  0.00     0.054 A 
HETATM   12  C11 UNK   900       4.381 -63.319 -63.465  1.00  0.00     0.040 A 
HETATM   13  C12 UNK   900       5.591 -63.630 -61.397  1.00  0.00     0.066 A 
HETATM   14  C13 UNK   900       5.441 -63.888 -62.759  1.00  0.00     0.039 A 
ENDROOT
BRANCH   5  15
HETATM   15  C8  UNK   900       0.705 -58.528 -61.181  1.00  0.00     0.144 C 
HETATM   16  O4  UNK   900      -0.428 -58.165 -61.460  1.00  0.00    -0.650 OA
BRANCH  15  17
HETATM   17  O3  UNK   900       1.360 -58.176 -60.047  1.00  0.00    -0.776 OA
HETATM   18  H10 UNK   900       0.843 -58.392 -59.242  1.00  0.00     0.167 HD
ENDBRANCH  15  17
ENDBRANCH   5  15
BRANCH  13  19
HETATM   19  O5  UNK   900       6.627 -64.184 -60.710  1.00  0.00    -0.361 OA
HETATM   20  H12 UNK   900       7.133 -63.476 -60.275  1.00  0.00     0.217 HD
ENDBRANCH  13  19
TORSDOF 3
ENDMDL
MODEL 9
REMARK VINA RESULT:      -5.1     17.356     20.006
REMARK  3 active torsions:
REMARK  status: ('A' for Active; 'I' for Inactive)
REMARK    1  A    between atoms: O3_3  and  C8_13 
REMARK    2  A    between atoms: O5_5  and  C12_17 
REMARK    3  A    between atoms: C3_8  and  C8_13 
ROOT
HETATM    1  O1  UNK   900      19.096 -32.680 -45.717  1.00  0.00    -0.344 OA
HETATM    2  O2  UNK   900      20.219 -30.439 -48.935  1.00  0.00    -0.292 OA
HETATM    3  C1  UNK   900      20.167 -32.625 -47.956  1.00  0.00     0.104 C 
HETATM    4  C2  UNK   900      19.320 -33.390 -46.938  1.00  0.00     0.141 C 
HETATM    5  C3  UNK   900      21.625 -32.818 -47.507  1.00  0.00     0.098 C 
HETATM    6  C4  UNK   900      20.211 -34.583 -46.610  1.00  0.00     0.034 C 
HETATM    7  C5  UNK   900      21.598 -33.958 -46.478  1.00  0.00     0.019 C 
HETATM    8  C6  UNK   900      19.784 -31.168 -48.050  1.00  0.00     0.170 C 
HETATM    9  C7  UNK   900      18.880 -30.641 -47.014  1.00  0.00     0.046 A 
HETATM   10  C9  UNK   900      18.590 -31.425 -45.900  1.00  0.00     0.083 A 
HETATM   11  C10 UNK   900      18.357 -29.349 -47.123  1.00  0.00     0.054 A 
HETATM   12  C11 UNK   900      17.797 -30.908 -44.875  1.00  0.00     0.040 A 
HETATM   13  C12 UNK   900      17.546 -28.845 -46.106  1.00  0.00     0.066 A 
HETATM   14  C13 UNK   900      17.269 -29.622 -44.982  1.00  0.00     0.039 A 
ENDROOT
BRANCH   5  15
HETATM   15  C8  UNK   900      22.495 -33.188 -48.672  1.00  0.00     0.144 C 
HETATM   16  O4  UNK   900      23.655 -33.561 -48.592  1.00  0.00    -0.650 OA
BRANCH  15  17
HETATM   17  O3  UNK   900      21.817 -33.051 -49.838  1.00  0.00    -0.776 OA
HETATM   18  H10 UNK   900      20.882 -32.792 -49.690  1.00  0.00     0.167 HD
ENDBRANCH  15  17
ENDBRANCH   5  15
BRANCH  13  19
HETATM   19  O5  UNK   900      17.031 -27.589 -46.207  1.00  0.00    -0.361 OA
HETATM   20  H12 UNK   900      16.278 -27.505 -45.596  1.00  0.00     0.217 HD
ENDBRANCH  13  19
TORSDOF 3
ENDMDL
