MODEL 1
REMARK VINA RESULT:      -6.1      0.000      0.000
REMARK  4 active torsions:
REMARK  status: ('A' for Active; 'I' for Inactive)
REMARK    1  A    between atoms: C1_6  and  C2_7 
REMARK    2  A    between atoms: C2_7  and  C6_11 
REMARK    3  A    between atoms: C3_8  and  C4_9 
REMARK    4  A    between atoms: C4_9  and  C9_14 
ROOT
HETATM    1  O1  UNK   900      19.653 -29.523 -48.265  1.00  0.00    -0.271 OA
HETATM    2  O2  UNK   900      22.935 -33.023 -50.573  1.00  0.00    -0.271 OA
HETATM    3  N1  UNK   900      21.552 -32.434 -48.832  1.00  0.00    -0.346 N 
HETATM    4  N2  UNK   900      21.164 -30.036 -49.914  1.00  0.00    -0.346 N 
HETATM    5  C1  UNK   900      21.138 -31.400 -47.897  1.00  0.00     0.180 C 
HETATM    6  C3  UNK   900      22.398 -30.691 -50.315  1.00  0.00     0.181 C 
HETATM    7  C5  UNK   900      20.538 -30.257 -48.701  1.00  0.00     0.241 C 
HETATM    8  C7  UNK   900      22.305 -32.164 -49.958  1.00  0.00     0.241 C 
HETATM    9  H6  UNK   900      21.511 -33.407 -48.547  1.00  0.00     0.163 HD
HETATM   10  H9  UNK   900      20.828 -29.265 -50.484  1.00  0.00     0.163 HD
ENDROOT
BRANCH   6  11
HETATM   11  C4  UNK   900      23.633 -30.036 -49.717  1.00  0.00     0.075 C 
BRANCH  11  12
HETATM   12  C9  UNK   900      24.425 -29.282 -50.755  1.00  0.00    -0.028 A 
HETATM   13  C10 UNK   900      24.079 -28.033 -51.342  1.00  0.00    -0.002 A 
HETATM   14  C13 UNK   900      25.093 -27.710 -52.246  1.00  0.00     0.042 A 
HETATM   15  C14 UNK   900      22.997 -27.142 -51.189  1.00  0.00     0.014 A 
HETATM   16  N3  UNK   900      26.014 -28.732 -52.203  1.00  0.00    -0.365 N 
HETATM   17  C15 UNK   900      25.078 -26.537 -53.009  1.00  0.00     0.030 A 
HETATM   18  C12 UNK   900      25.619 -29.686 -51.305  1.00  0.00     0.096 A 
HETATM   19  H17 UNK   900      26.860 -28.770 -52.756  1.00  0.00     0.165 HD
HETATM   20  C17 UNK   900      23.995 -25.669 -52.841  1.00  0.00     0.002 A 
HETATM   21  C16 UNK   900      22.970 -25.965 -51.946  1.00  0.00     0.001 A 
ENDBRANCH  11  12
ENDBRANCH   6  11
BRANCH   5  22
HETATM   22  C2  UNK   900      20.148 -31.949 -46.880  1.00  0.00     0.013 C 
HETATM   23  C8  UNK   900      19.152 -32.887 -47.572  1.00  0.00     0.012 C 
BRANCH  22  24
HETATM   24  C6  UNK   900      20.839 -32.694 -45.721  1.00  0.00     0.002 C 
HETATM   25  C11 UNK   900      20.743 -34.209 -45.833  1.00  0.00     0.005 C 
ENDBRANCH  22  24
ENDBRANCH   5  22
TORSDOF 4
ENDMDL
MODEL 2
REMARK VINA RESULT:      -6.0     26.454     28.277
REMARK  4 active torsions:
REMARK  status: ('A' for Active; 'I' for Inactive)
REMARK    1  A    between atoms: C1_6  and  C2_7 
REMARK    2  A    between atoms: C2_7  and  C6_11 
REMARK    3  A    between atoms: C3_8  and  C4_9 
REMARK    4  A    between atoms: C4_9  and  C9_14 
ROOT
HETATM    1  O1  UNK   900      -0.204 -47.539 -61.028  1.00  0.00    -0.271 OA
HETATM    2  O2  UNK   900       3.680 -49.460 -57.933  1.00  0.00    -0.271 OA
HETATM    3  N1  UNK   900       1.454 -48.999 -58.285  1.00  0.00    -0.346 N 
HETATM    4  N2  UNK   900       2.032 -47.839 -60.607  1.00  0.00    -0.346 N 
HETATM    5  C1  UNK   900       0.464 -48.043 -58.756  1.00  0.00     0.180 C 
HETATM    6  C3  UNK   900       3.129 -47.870 -59.654  1.00  0.00     0.181 C 
HETATM    7  C5  UNK   900       0.698 -47.821 -60.242  1.00  0.00     0.241 C 
HETATM    8  C7  UNK   900       2.801 -48.878 -58.568  1.00  0.00     0.241 C 
HETATM    9  H6  UNK   900       1.213 -49.634 -57.532  1.00  0.00     0.163 HD
HETATM   10  H9  UNK   900       2.255 -47.666 -61.583  1.00  0.00     0.163 HD
ENDROOT
BRANCH   6  11
HETATM   11  C4  UNK   900       3.449 -46.498 -59.081  1.00  0.00     0.075 C 
BRANCH  11  12
HETATM   12  C9  UNK   900       3.374 -45.421 -60.132  1.00  0.00    -0.028 A 
HETATM   13  C10 UNK   900       4.292 -45.215 -61.201  1.00  0.00    -0.002 A 
HETATM   14  C13 UNK   900       3.836 -44.112 -61.926  1.00  0.00     0.042 A 
HETATM   15  C14 UNK   900       5.469 -45.864 -61.622  1.00  0.00     0.014 A 
HETATM   16  N3  UNK   900       2.685 -43.671 -61.311  1.00  0.00    -0.365 N 
HETATM   17  C15 UNK   900       4.502 -43.622 -63.054  1.00  0.00     0.030 A 
HETATM   18  C12 UNK   900       2.398 -44.456 -60.227  1.00  0.00     0.096 A 
HETATM   19  H17 UNK   900       2.133 -42.882 -61.618  1.00  0.00     0.165 HD
HETATM   20  C17 UNK   900       5.668 -44.283 -63.454  1.00  0.00     0.002 A 
HETATM   21  C16 UNK   900       6.146 -45.386 -62.751  1.00  0.00     0.001 A 
ENDBRANCH  11  12
ENDBRANCH   6  11
BRANCH   5  22
HETATM   22  C2  UNK   900      -0.947 -48.539 -58.480  1.00  0.00     0.013 C 
HETATM   23  C8  UNK   900      -0.922 -50.038 -58.157  1.00  0.00     0.012 C 
BRANCH  22  24
HETATM   24  C6  UNK   900      -1.632 -47.775 -57.329  1.00  0.00     0.002 C 
HETATM   25  C11 UNK   900      -1.107 -48.157 -55.952  1.00  0.00     0.005 C 
ENDBRANCH  22  24
ENDBRANCH   5  22
TORSDOF 4
ENDMDL
MODEL 3
REMARK VINA RESULT:      -5.7      1.851      6.848
REMARK  4 active torsions:
REMARK  status: ('A' for Active; 'I' for Inactive)
REMARK    1  A    between atoms: C1_6  and  C2_7 
REMARK    2  A    between atoms: C2_7  and  C6_11 
REMARK    3  A    between atoms: C3_8  and  C4_9 
REMARK    4  A    between atoms: C4_9  and  C9_14 
ROOT
HETATM    1  O1  UNK   900      21.737 -26.817 -48.800  1.00  0.00    -0.271 OA
HETATM    2  O2  UNK   900      25.282 -29.699 -51.533  1.00  0.00    -0.271 OA
HETATM    3  N1  UNK   900      23.832 -27.918 -51.407  1.00  0.00    -0.346 N 
HETATM    4  N2  UNK   900      23.050 -28.690 -48.985  1.00  0.00    -0.346 N 
HETATM    5  C1  UNK   900      22.520 -27.437 -51.005  1.00  0.00     0.180 C 
HETATM    6  C3  UNK   900      23.599 -29.751 -49.814  1.00  0.00     0.181 C 
HETATM    7  C5  UNK   900      22.416 -27.570 -49.494  1.00  0.00     0.241 C 
HETATM    8  C7  UNK   900      24.351 -29.123 -50.973  1.00  0.00     0.241 C 
HETATM    9  H6  UNK   900      24.291 -27.500 -52.210  1.00  0.00     0.163 HD
HETATM   10  H9  UNK   900      22.990 -28.851 -47.985  1.00  0.00     0.163 HD
ENDROOT
BRANCH   6  11
HETATM   11  C4  UNK   900      22.541 -30.736 -50.286  1.00  0.00     0.075 C 
BRANCH  11  12
HETATM   12  C9  UNK   900      22.398 -31.900 -49.339  1.00  0.00    -0.028 A 
HETATM   13  C10 UNK   900      21.261 -32.206 -48.540  1.00  0.00    -0.002 A 
HETATM   14  C13 UNK   900      21.565 -33.365 -47.822  1.00  0.00     0.042 A 
HETATM   15  C14 UNK   900      19.998 -31.608 -48.359  1.00  0.00     0.014 A 
HETATM   16  N3  UNK   900      22.841 -33.738 -48.178  1.00  0.00    -0.365 N 
HETATM   17  C15 UNK   900      20.666 -33.957 -46.927  1.00  0.00     0.030 A 
HETATM   18  C12 UNK   900      23.352 -32.860 -49.094  1.00  0.00     0.096 A 
HETATM   19  H17 UNK   900      23.329 -34.546 -47.814  1.00  0.00     0.165 HD
HETATM   20  C17 UNK   900      19.419 -33.345 -46.764  1.00  0.00     0.002 A 
HETATM   21  C16 UNK   900      19.089 -32.190 -47.468  1.00  0.00     0.001 A 
ENDBRANCH  11  12
ENDBRANCH   6  11
BRANCH   5  22
HETATM   22  C2  UNK   900      22.304 -26.000 -51.456  1.00  0.00     0.013 C 
HETATM   23  C8  UNK   900      23.289 -25.650 -52.578  1.00  0.00     0.012 C 
BRANCH  22  24
HETATM   24  C6  UNK   900      20.862 -25.738 -51.935  1.00  0.00     0.002 C 
HETATM   25  C11 UNK   900      20.721 -24.468 -52.764  1.00  0.00     0.005 C 
ENDBRANCH  22  24
ENDBRANCH   5  22
TORSDOF 4
ENDMDL
MODEL 4
REMARK VINA RESULT:      -5.6      5.557      9.635
REMARK  4 active torsions:
REMARK  status: ('A' for Active; 'I' for Inactive)
REMARK    1  A    between atoms: C1_6  and  C2_7 
REMARK    2  A    between atoms: C2_7  and  C6_11 
REMARK    3  A    between atoms: C3_8  and  C4_9 
REMARK    4  A    between atoms: C4_9  and  C9_14 
ROOT
HETATM    1  O1  UNK   900      23.302 -21.298 -52.494  1.00  0.00    -0.271 OA
HETATM    2  O2  UNK   900      26.246 -22.898 -56.633  1.00  0.00    -0.271 OA
HETATM    3  N1  UNK   900      24.462 -21.712 -55.793  1.00  0.00    -0.346 N 
HETATM    4  N2  UNK   900      24.974 -22.619 -53.346  1.00  0.00    -0.346 N 
HETATM    5  C1  UNK   900      23.329 -21.692 -54.883  1.00  0.00     0.180 C 
HETATM    6  C3  UNK   900      25.475 -23.458 -54.423  1.00  0.00     0.181 C 
HETATM    7  C5  UNK   900      23.866 -21.800 -53.465  1.00  0.00     0.241 C 
HETATM    8  C7  UNK   900      25.470 -22.653 -55.709  1.00  0.00     0.241 C 
HETATM    9  H6  UNK   900      24.412 -21.191 -56.663  1.00  0.00     0.163 HD
HETATM   10  H9  UNK   900      25.362 -22.756 -52.418  1.00  0.00     0.163 HD
ENDROOT
BRANCH   6  11
HETATM   11  C4  UNK   900      24.701 -24.760 -54.562  1.00  0.00     0.075 C 
BRANCH  11  12
HETATM   12  C9  UNK   900      25.389 -25.898 -53.853  1.00  0.00    -0.028 A 
HETATM   13  C10 UNK   900      24.848 -26.693 -52.803  1.00  0.00    -0.002 A 
HETATM   14  C13 UNK   900      25.826 -27.626 -52.450  1.00  0.00     0.042 A 
HETATM   15  C14 UNK   900      23.616 -26.710 -52.119  1.00  0.00     0.014 A 
HETATM   16  N3  UNK   900      26.916 -27.396 -53.259  1.00  0.00    -0.365 N 
HETATM   17  C15 UNK   900      25.634 -28.576 -51.441  1.00  0.00     0.030 A 
HETATM   18  C12 UNK   900      26.661 -26.354 -54.110  1.00  0.00     0.096 A 
HETATM   19  H17 UNK   900      27.779 -27.921 -53.228  1.00  0.00     0.165 HD
HETATM   20  C17 UNK   900      24.404 -28.574 -50.776  1.00  0.00     0.002 A 
HETATM   21  C16 UNK   900      23.410 -27.656 -51.109  1.00  0.00     0.001 A 
ENDBRANCH  11  12
ENDBRANCH   6  11
BRANCH   5  22
HETATM   22  C2  UNK   900      22.499 -20.430 -55.073  1.00  0.00     0.013 C 
HETATM   23  C8  UNK   900      23.144 -19.535 -56.137  1.00  0.00     0.012 C 
BRANCH  22  24
HETATM   24  C6  UNK   900      21.040 -20.732 -55.468  1.00  0.00     0.002 C 
HETATM   25  C11 UNK   900      20.687 -22.212 -55.397  1.00  0.00     0.005 C 
ENDBRANCH  22  24
ENDBRANCH   5  22
TORSDOF 4
ENDMDL
MODEL 5
REMARK VINA RESULT:      -5.6     40.013     41.466
REMARK  4 active torsions:
REMARK  status: ('A' for Active; 'I' for Inactive)
REMARK    1  A    between atoms: C1_6  and  C2_7 
REMARK    2  A    between atoms: C2_7  and  C6_11 
REMARK    3  A    between atoms: C3_8  and  C4_9 
REMARK    4  A    between atoms: C4_9  and  C9_14 
ROOT
HETATM    1  O1  UNK   900       5.553 -69.838 -51.419  1.00  0.00    -0.271 OA
HETATM    2  O2  UNK   900       3.665 -64.988 -52.546  1.00  0.00    -0.271 OA
HETATM    3  N1  UNK   900       5.336 -66.336 -51.718  1.00  0.00    -0.346 N 
HETATM    4  N2  UNK   900       3.819 -68.489 -52.083  1.00  0.00    -0.346 N 
HETATM    5  C1  UNK   900       5.686 -67.479 -50.891  1.00  0.00     0.180 C 
HETATM    6  C3  UNK   900       3.082 -67.244 -51.941  1.00  0.00     0.181 C 
HETATM    7  C5  UNK   900       5.058 -68.716 -51.512  1.00  0.00     0.241 C 
HETATM    8  C7  UNK   900       4.043 -66.086 -52.138  1.00  0.00     0.241 C 
HETATM    9  H6  UNK   900       5.987 -65.562 -51.799  1.00  0.00     0.163 HD
HETATM   10  H9  UNK   900       3.334 -69.284 -52.488  1.00  0.00     0.163 HD
ENDROOT
BRANCH   6  11
HETATM   11  C4  UNK   900       2.336 -67.148 -50.619  1.00  0.00     0.075 C 
BRANCH  11  12
HETATM   12  C9  UNK   900       1.213 -66.147 -50.682  1.00  0.00    -0.028 A 
HETATM   13  C10 UNK   900       0.869 -65.196 -49.680  1.00  0.00    -0.002 A 
HETATM   14  C13 UNK   900      -0.230 -64.477 -50.156  1.00  0.00     0.042 A 
HETATM   15  C14 UNK   900       1.390 -64.876 -48.410  1.00  0.00     0.014 A 
HETATM   16  N3  UNK   900      -0.534 -64.982 -51.401  1.00  0.00    -0.365 N 
HETATM   17  C15 UNK   900      -0.837 -63.452 -49.423  1.00  0.00     0.030 A 
HETATM   18  C12 UNK   900       0.331 -65.990 -51.726  1.00  0.00     0.096 A 
HETATM   19  H17 UNK   900      -1.289 -64.653 -51.987  1.00  0.00     0.165 HD
HETATM   20  C17 UNK   900      -0.303 -63.152 -48.166  1.00  0.00     0.002 A 
HETATM   21  C16 UNK   900       0.792 -63.852 -47.666  1.00  0.00     0.001 A 
ENDBRANCH  11  12
ENDBRANCH   6  11
BRANCH   5  22
HETATM   22  C2  UNK   900       7.196 -67.620 -50.765  1.00  0.00     0.013 C 
HETATM   23  C8  UNK   900       7.879 -67.069 -52.023  1.00  0.00     0.012 C 
BRANCH  22  24
HETATM   24  C6  UNK   900       7.758 -66.908 -49.519  1.00  0.00     0.002 C 
HETATM   25  C11 UNK   900       6.699 -66.596 -48.470  1.00  0.00     0.005 C 
ENDBRANCH  22  24
ENDBRANCH   5  22
TORSDOF 4
ENDMDL
MODEL 6
REMARK VINA RESULT:      -5.5     29.860     33.125
REMARK  4 active torsions:
REMARK  status: ('A' for Active; 'I' for Inactive)
REMARK    1  A    between atoms: C1_6  and  C2_7 
REMARK    2  A    between atoms: C2_7  and  C6_11 
REMARK    3  A    between atoms: C3_8  and  C4_9 
REMARK    4  A    between atoms: C4_9  and  C9_14 
ROOT
HETATM    1  O1  UNK   900      -1.551 -51.158 -47.301  1.00  0.00    -0.271 OA
HETATM    2  O2  UNK   900       0.544 -56.053 -47.274  1.00  0.00    -0.271 OA
HETATM    3  N1  UNK   900       0.495 -53.900 -46.465  1.00  0.00    -0.346 N 
HETATM    4  N2  UNK   900      -1.387 -53.251 -48.229  1.00  0.00    -0.346 N 
HETATM    5  C1  UNK   900       0.406 -52.481 -46.773  1.00  0.00     0.180 C 
HETATM    6  C3  UNK   900      -0.561 -54.384 -48.611  1.00  0.00     0.181 C 
HETATM    7  C5  UNK   900      -0.949 -52.224 -47.411  1.00  0.00     0.241 C 
HETATM    8  C7  UNK   900       0.178 -54.883 -47.383  1.00  0.00     0.241 C 
HETATM    9  H6  UNK   900       1.028 -54.202 -45.657  1.00  0.00     0.163 HD
HETATM   10  H9  UNK   900      -2.273 -53.125 -48.709  1.00  0.00     0.163 HD
ENDROOT
BRANCH   6  11
HETATM   11  C4  UNK   900       0.387 -54.063 -49.756  1.00  0.00     0.075 C 
BRANCH  11  12
HETATM   12  C9  UNK   900      -0.039 -54.729 -51.039  1.00  0.00    -0.028 A 
HETATM   13  C10 UNK   900      -0.832 -54.152 -52.071  1.00  0.00    -0.002 A 
HETATM   14  C13 UNK   900      -0.977 -55.121 -53.066  1.00  0.00     0.042 A 
HETATM   15  C14 UNK   900      -1.441 -52.895 -52.254  1.00  0.00     0.014 A 
HETATM   16  N3  UNK   900      -0.295 -56.240 -52.644  1.00  0.00    -0.365 N 
HETATM   17  C15 UNK   900      -1.705 -54.895 -54.239  1.00  0.00     0.030 A 
HETATM   18  C12 UNK   900       0.275 -56.013 -51.421  1.00  0.00     0.096 A 
HETATM   19  H17 UNK   900      -0.227 -57.104 -53.164  1.00  0.00     0.165 HD
HETATM   20  C17 UNK   900      -2.301 -53.640 -54.399  1.00  0.00     0.002 A 
HETATM   21  C16 UNK   900      -2.172 -52.655 -53.423  1.00  0.00     0.001 A 
ENDBRANCH  11  12
ENDBRANCH   6  11
BRANCH   5  22
HETATM   22  C2  UNK   900       0.605 -51.639 -45.521  1.00  0.00     0.013 C 
HETATM   23  C8  UNK   900       0.195 -52.441 -44.280  1.00  0.00     0.012 C 
BRANCH  22  24
HETATM   24  C6  UNK   900       2.056 -51.146 -45.360  1.00  0.00     0.002 C 
HETATM   25  C11 UNK   900       2.158 -49.670 -44.998  1.00  0.00     0.005 C 
ENDBRANCH  22  24
ENDBRANCH   5  22
TORSDOF 4
ENDMDL
MODEL 7
REMARK VINA RESULT:      -5.1     33.298     35.691
REMARK  4 active torsions:
REMARK  status: ('A' for Active; 'I' for Inactive)
REMARK    1  A    between atoms: C1_6  and  C2_7 
REMARK    2  A    between atoms: C2_7  and  C6_11 
REMARK    3  A    between atoms: C3_8  and  C4_9 
REMARK    4  A    between atoms: C4_9  and  C9_14 
ROOT
HETATM    1  O1  UNK   900       8.875 -23.242 -85.684  1.00  0.00    -0.271 OA
HETATM    2  O2  UNK   900      12.802 -25.106 -82.608  1.00  0.00    -0.271 OA
HETATM    3  N1  UNK   900      11.587 -25.188 -84.560  1.00  0.00    -0.346 N 
HETATM    4  N2  UNK   900       9.972 -23.272 -83.667  1.00  0.00    -0.346 N 
HETATM    5  C1  UNK   900      10.274 -25.154 -85.183  1.00  0.00     0.180 C 
HETATM    6  C3  UNK   900      10.650 -24.029 -82.627  1.00  0.00     0.181 C 
HETATM    7  C5  UNK   900       9.663 -23.788 -84.913  1.00  0.00     0.241 C 
HETATM    8  C7  UNK   900      11.804 -24.790 -83.254  1.00  0.00     0.241 C 
HETATM    9  H6  UNK   900      12.326 -25.737 -84.985  1.00  0.00     0.163 HD
HETATM   10  H9  UNK   900       9.568 -22.375 -83.416  1.00  0.00     0.163 HD
ENDROOT
BRANCH   6  11
HETATM   11  C4  UNK   900       9.710 -24.946 -81.860  1.00  0.00     0.075 C 
BRANCH  11  12
HETATM   12  C9  UNK   900      10.259 -25.301 -80.502  1.00  0.00    -0.028 A 
HETATM   13  C10 UNK   900      10.432 -26.611 -79.974  1.00  0.00    -0.002 A 
HETATM   14  C13 UNK   900      10.968 -26.469 -78.693  1.00  0.00     0.042 A 
HETATM   15  C14 UNK   900      10.184 -27.908 -80.466  1.00  0.00     0.014 A 
HETATM   16  N3  UNK   900      11.110 -25.119 -78.461  1.00  0.00    -0.365 N 
HETATM   17  C15 UNK   900      11.268 -27.564 -77.874  1.00  0.00     0.030 A 
HETATM   18  C12 UNK   900      10.685 -24.406 -79.548  1.00  0.00     0.096 A 
HETATM   19  H17 UNK   900      11.476 -24.716 -77.609  1.00  0.00     0.165 HD
HETATM   20  C17 UNK   900      11.013 -28.841 -78.383  1.00  0.00     0.002 A 
HETATM   21  C16 UNK   900      10.480 -29.012 -79.658  1.00  0.00     0.001 A 
ENDBRANCH  11  12
ENDBRANCH   6  11
BRANCH   5  22
HETATM   22  C2  UNK   900      10.371 -25.439 -86.674  1.00  0.00     0.013 C 
HETATM   23  C8  UNK   900      11.805 -25.199 -87.161  1.00  0.00     0.012 C 
BRANCH  22  24
HETATM   24  C6  UNK   900       9.938 -26.874 -87.035  1.00  0.00     0.002 C 
HETATM   25  C11 UNK   900      10.841 -27.538 -88.065  1.00  0.00     0.005 C 
ENDBRANCH  22  24
ENDBRANCH   5  22
TORSDOF 4
ENDMDL
MODEL 8
REMARK VINA RESULT:      -5.0     40.612     42.088
REMARK  4 active torsions:
REMARK  status: ('A' for Active; 'I' for Inactive)
REMARK    1  A    between atoms: C1_6  and  C2_7 
REMARK    2  A    between atoms: C2_7  and  C6_11 
REMARK    3  A    between atoms: C3_8  and  C4_9 
REMARK    4  A    between atoms: C4_9  and  C9_14 
ROOT
HETATM    1  O1  UNK   900       4.154 -70.249 -52.247  1.00  0.00    -0.271 OA
HETATM    2  O2  UNK   900       3.457 -64.975 -52.469  1.00  0.00    -0.271 OA
HETATM    3  N1  UNK   900       4.818 -66.793 -52.106  1.00  0.00    -0.346 N 
HETATM    4  N2  UNK   900       2.756 -68.439 -52.439  1.00  0.00    -0.346 N 
HETATM    5  C1  UNK   900       4.971 -68.100 -51.487  1.00  0.00     0.180 C 
HETATM    6  C3  UNK   900       2.397 -67.091 -52.030  1.00  0.00     0.181 C 
HETATM    7  C5  UNK   900       3.961 -69.041 -52.125  1.00  0.00     0.241 C 
HETATM    8  C7  UNK   900       3.589 -66.180 -52.261  1.00  0.00     0.241 C 
HETATM    9  H6  UNK   900       5.630 -66.194 -52.211  1.00  0.00     0.163 HD
HETATM   10  H9  UNK   900       2.028 -69.023 -52.841  1.00  0.00     0.163 HD
ENDROOT
BRANCH   6  11
HETATM   11  C4  UNK   900       1.897 -67.024 -50.596  1.00  0.00     0.075 C 
BRANCH  11  12
HETATM   12  C9  UNK   900       1.116 -65.762 -50.333  1.00  0.00    -0.028 A 
HETATM   13  C10 UNK   900      -0.053 -65.331 -51.020  1.00  0.00    -0.002 A 
HETATM   14  C13 UNK   900      -0.438 -64.116 -50.450  1.00  0.00     0.042 A 
HETATM   15  C14 UNK   900      -0.824 -65.860 -52.075  1.00  0.00     0.014 A 
HETATM   16  N3  UNK   900       0.471 -63.828 -49.457  1.00  0.00    -0.365 N 
HETATM   17  C15 UNK   900      -1.559 -63.399 -50.885  1.00  0.00     0.030 A 
HETATM   18  C12 UNK   900       1.413 -64.817 -49.379  1.00  0.00     0.096 A 
HETATM   19  H17 UNK   900       0.443 -63.005 -48.871  1.00  0.00     0.165 HD
HETATM   20  C17 UNK   900      -2.308 -63.944 -51.932  1.00  0.00     0.002 A 
HETATM   21  C16 UNK   900      -1.948 -65.155 -52.519  1.00  0.00     0.001 A 
ENDBRANCH  11  12
ENDBRANCH   6  11
BRANCH   5  22
HETATM   22  C2  UNK   900       6.394 -68.615 -51.646  1.00  0.00     0.013 C 
HETATM   23  C8  UNK   900       7.305 -67.490 -52.152  1.00  0.00     0.012 C 
BRANCH  22  24
HETATM   24  C6  UNK   900       6.966 -69.193 -50.337  1.00  0.00     0.002 C 
HETATM   25  C11 UNK   900       8.479 -69.366 -50.361  1.00  0.00     0.005 C 
ENDBRANCH  22  24
ENDBRANCH   5  22
TORSDOF 4
ENDMDL
MODEL 9
REMARK VINA RESULT:      -5.0     39.153     42.136
REMARK  4 active torsions:
REMARK  status: ('A' for Active; 'I' for Inactive)
REMARK    1  A    between atoms: C1_6  and  C2_7 
REMARK    2  A    between atoms: C2_7  and  C6_11 
REMARK    3  A    between atoms: C3_8  and  C4_9 
REMARK    4  A    between atoms: C4_9  and  C9_14 
ROOT
HETATM    1  O1  UNK   900       3.305 -65.030 -65.512  1.00  0.00    -0.271 OA
HETATM    2  O2  UNK   900       7.719 -67.185 -63.457  1.00  0.00    -0.271 OA
HETATM    3  N1  UNK   900       5.708 -67.417 -64.551  1.00  0.00    -0.346 N 
HETATM    4  N2  UNK   900       5.224 -64.817 -64.271  1.00  0.00    -0.346 N 
HETATM    5  C1  UNK   900       4.304 -67.045 -64.617  1.00  0.00     0.180 C 
HETATM    6  C3  UNK   900       6.144 -65.373 -63.292  1.00  0.00     0.181 C 
HETATM    7  C5  UNK   900       4.229 -65.552 -64.891  1.00  0.00     0.241 C 
HETATM    8  C7  UNK   900       6.630 -66.721 -63.791  1.00  0.00     0.241 C 
HETATM    9  H6  UNK   900       5.994 -68.341 -64.859  1.00  0.00     0.163 HD
HETATM   10  H9  UNK   900       5.209 -63.809 -64.391  1.00  0.00     0.163 HD
ENDROOT
BRANCH   6  11
HETATM   11  C4  UNK   900       5.537 -65.464 -61.900  1.00  0.00     0.075 C 
BRANCH  11  12
HETATM   12  C9  UNK   900       5.164 -64.107 -61.362  1.00  0.00    -0.028 A 
HETATM   13  C10 UNK   900       3.852 -63.562 -61.275  1.00  0.00    -0.002 A 
HETATM   14  C13 UNK   900       3.974 -62.288 -60.716  1.00  0.00     0.042 A 
HETATM   15  C14 UNK   900       2.569 -64.032 -61.619  1.00  0.00     0.014 A 
HETATM   16  N3  UNK   900       5.314 -62.078 -60.477  1.00  0.00    -0.365 N 
HETATM   17  C15 UNK   900       2.873 -61.456 -60.484  1.00  0.00     0.030 A 
HETATM   18  C12 UNK   900       6.040 -63.171 -60.864  1.00  0.00     0.096 A 
HETATM   19  H17 UNK   900       5.703 -61.236 -60.074  1.00  0.00     0.165 HD
HETATM   20  C17 UNK   900       1.610 -61.944 -60.834  1.00  0.00     0.002 A 
HETATM   21  C16 UNK   900       1.459 -63.210 -61.392  1.00  0.00     0.001 A 
ENDBRANCH  11  12
ENDBRANCH   6  11
BRANCH   5  22
HETATM   22  C2  UNK   900       3.578 -67.848 -65.687  1.00  0.00     0.013 C 
HETATM   23  C8  UNK   900       4.595 -68.555 -66.591  1.00  0.00     0.012 C 
BRANCH  22  24
HETATM   24  C6  UNK   900       2.606 -68.886 -65.093  1.00  0.00     0.002 C 
HETATM   25  C11 UNK   900       2.305 -70.043 -66.036  1.00  0.00     0.005 C 
ENDBRANCH  22  24
ENDBRANCH   5  22
TORSDOF 4
ENDMDL
