MODEL 1
REMARK VINA RESULT:      -6.7      0.000      0.000
REMARK  0 active torsions:
REMARK  status: ('A' for Active; 'I' for Inactive)
ROOT
HETATM    1  O1  UNK   900      29.466 -49.912 -60.531  1.00  0.00    -0.313 OA
HETATM    2  O2  UNK   900      30.306 -49.268 -58.499  1.00  0.00    -0.260 OA
HETATM    3  C1  UNK   900      30.901 -45.873 -62.779  1.00  0.00    -0.002 C 
HETATM    4  C2  UNK   900      30.736 -47.387 -62.966  1.00  0.00     0.022 C 
HETATM    5  C3  UNK   900      30.079 -46.276 -65.053  1.00  0.00    -0.047 C 
HETATM    6  C4  UNK   900      31.021 -45.369 -64.225  1.00  0.00     0.014 C 
HETATM    7  C5  UNK   900      29.688 -47.424 -64.093  1.00  0.00     0.018 C 
HETATM    8  C6  UNK   900      32.037 -45.394 -61.859  1.00  0.00    -0.014 C 
HETATM    9  C7  UNK   900      30.366 -48.175 -61.744  1.00  0.00    -0.039 A 
HETATM   10  C8  UNK   900      31.650 -45.568 -60.380  1.00  0.00     0.009 C 
HETATM   11  C9  UNK   900      30.809 -46.823 -66.287  1.00  0.00     0.015 C 
HETATM   12  C10 UNK   900      28.832 -45.507 -65.507  1.00  0.00     0.015 C 
HETATM   13  C11 UNK   900      30.760 -47.992 -60.481  1.00  0.00     0.022 A 
HETATM   14  C12 UNK   900      31.649 -46.992 -59.826  1.00  0.00     0.045 C 
HETATM   15  C13 UNK   900      33.412 -45.995 -62.163  1.00  0.00     0.010 C 
HETATM   16  C14 UNK   900      29.537 -49.400 -61.859  1.00  0.00     0.214 A 
HETATM   17  C15 UNK   900      30.173 -49.098 -59.699  1.00  0.00     0.289 A 
ENDROOT
TORSDOF 0
ENDMDL
MODEL 2
REMARK VINA RESULT:      -5.8     31.890     34.393
REMARK  0 active torsions:
REMARK  status: ('A' for Active; 'I' for Inactive)
ROOT
HETATM    1  O1  UNK   900       3.064 -67.103 -51.833  1.00  0.00    -0.313 OA
HETATM    2  O2  UNK   900       3.725 -65.003 -52.467  1.00  0.00    -0.260 OA
HETATM    3  C1  UNK   900       7.588 -68.673 -51.121  1.00  0.00    -0.002 C 
HETATM    4  C2  UNK   900       6.157 -68.769 -50.576  1.00  0.00     0.022 C 
HETATM    5  C3  UNK   900       7.184 -70.993 -50.441  1.00  0.00    -0.047 C 
HETATM    6  C4  UNK   900       8.271 -69.892 -50.483  1.00  0.00     0.014 C 
HETATM    7  C5  UNK   900       5.867 -70.265 -50.795  1.00  0.00     0.018 C 
HETATM    8  C6  UNK   900       8.342 -67.352 -50.898  1.00  0.00    -0.014 C 
HETATM    9  C7  UNK   900       5.146 -67.843 -51.183  1.00  0.00    -0.039 A 
HETATM   10  C8  UNK   900       7.858 -66.274 -51.884  1.00  0.00     0.009 C 
HETATM   11  C9  UNK   900       7.106 -71.614 -49.041  1.00  0.00     0.015 C 
HETATM   12  C10 UNK   900       7.479 -72.098 -51.464  1.00  0.00     0.015 C 
HETATM   13  C11 UNK   900       5.309 -66.582 -51.594  1.00  0.00     0.022 A 
HETATM   14  C12 UNK   900       6.481 -65.664 -51.624  1.00  0.00     0.045 C 
HETATM   15  C13 UNK   900       8.342 -66.843 -49.454  1.00  0.00     0.010 C 
HETATM   16  C14 UNK   900       3.723 -68.248 -51.296  1.00  0.00     0.214 A 
HETATM   17  C15 UNK   900       3.978 -66.110 -52.023  1.00  0.00     0.289 A 
ENDROOT
TORSDOF 0
ENDMDL
MODEL 3
REMARK VINA RESULT:      -5.7     25.874     27.788
REMARK  0 active torsions:
REMARK  status: ('A' for Active; 'I' for Inactive)
ROOT
HETATM    1  O1  UNK   900      27.637 -56.639 -38.520  1.00  0.00    -0.313 OA
HETATM    2  O2  UNK   900      29.639 -57.554 -39.156  1.00  0.00    -0.260 OA
HETATM    3  C1  UNK   900      25.313 -60.885 -38.526  1.00  0.00    -0.002 C 
HETATM    4  C2  UNK   900      25.415 -59.544 -37.786  1.00  0.00     0.022 C 
HETATM    5  C3  UNK   900      23.050 -60.189 -37.891  1.00  0.00    -0.047 C 
HETATM    6  C4  UNK   900      23.961 -61.431 -38.042  1.00  0.00     0.014 C 
HETATM    7  C5  UNK   900      24.002 -58.978 -38.023  1.00  0.00     0.018 C 
HETATM    8  C6  UNK   900      26.477 -61.875 -38.358  1.00  0.00    -0.014 C 
HETATM    9  C7  UNK   900      26.530 -58.633 -38.205  1.00  0.00    -0.039 A 
HETATM   10  C8  UNK   900      27.680 -61.453 -39.220  1.00  0.00     0.009 C 
HETATM   11  C9  UNK   900      22.361 -60.194 -36.520  1.00  0.00     0.015 C 
HETATM   12  C10 UNK   900      21.980 -60.153 -38.990  1.00  0.00     0.015 C 
HETATM   13  C11 UNK   900      27.771 -58.950 -38.583  1.00  0.00     0.022 A 
HETATM   14  C12 UNK   900      28.487 -60.246 -38.742  1.00  0.00     0.045 C 
HETATM   15  C13 UNK   900      26.885 -62.154 -36.909  1.00  0.00     0.010 C 
HETATM   16  C14 UNK   900      26.368 -57.159 -38.131  1.00  0.00     0.214 A 
HETATM   17  C15 UNK   900      28.479 -57.673 -38.798  1.00  0.00     0.289 A 
ENDROOT
TORSDOF 0
ENDMDL
MODEL 4
REMARK VINA RESULT:      -5.5      1.744      2.800
REMARK  0 active torsions:
REMARK  status: ('A' for Active; 'I' for Inactive)
ROOT
HETATM    1  O1  UNK   900      29.278 -48.437 -63.204  1.00  0.00    -0.313 OA
HETATM    2  O2  UNK   900      29.135 -49.457 -61.157  1.00  0.00    -0.260 OA
HETATM    3  C1  UNK   900      32.607 -45.239 -61.750  1.00  0.00    -0.002 C 
HETATM    4  C2  UNK   900      32.178 -46.105 -62.941  1.00  0.00     0.022 C 
HETATM    5  C3  UNK   900      32.945 -43.938 -63.800  1.00  0.00    -0.047 C 
HETATM    6  C4  UNK   900      33.550 -44.216 -62.403  1.00  0.00     0.014 C 
HETATM    7  C5  UNK   900      31.854 -45.019 -63.983  1.00  0.00     0.018 C 
HETATM    8  C6  UNK   900      33.219 -45.959 -60.536  1.00  0.00    -0.014 C 
HETATM    9  C7  UNK   900      31.067 -47.081 -62.692  1.00  0.00    -0.039 A 
HETATM   10  C8  UNK   900      32.121 -46.633 -59.693  1.00  0.00     0.009 C 
HETATM   11  C9  UNK   900      34.024 -44.063 -64.884  1.00  0.00     0.015 C 
HETATM   12  C10 UNK   900      32.329 -42.536 -63.865  1.00  0.00     0.015 C 
HETATM   13  C11 UNK   900      30.816 -47.799 -61.595  1.00  0.00     0.022 A 
HETATM   14  C12 UNK   900      31.485 -47.898 -60.267  1.00  0.00     0.045 C 
HETATM   15  C13 UNK   900      34.359 -46.926 -60.865  1.00  0.00     0.010 C 
HETATM   16  C14 UNK   900      30.123 -47.443 -63.779  1.00  0.00     0.214 A 
HETATM   17  C15 UNK   900      29.661 -48.660 -61.916  1.00  0.00     0.289 A 
ENDROOT
TORSDOF 0
ENDMDL
MODEL 5
REMARK VINA RESULT:      -5.5      3.341      4.994
REMARK  0 active torsions:
REMARK  status: ('A' for Active; 'I' for Inactive)
ROOT
HETATM    1  O1  UNK   900      34.060 -47.375 -65.114  1.00  0.00    -0.313 OA
HETATM    2  O2  UNK   900      35.260 -45.470 -64.690  1.00  0.00    -0.260 OA
HETATM    3  C1  UNK   900      32.056 -47.493 -60.710  1.00  0.00    -0.002 C 
HETATM    4  C2  UNK   900      31.774 -47.769 -62.192  1.00  0.00     0.022 C 
HETATM    5  C3  UNK   900      30.692 -49.524 -60.862  1.00  0.00    -0.047 C 
HETATM    6  C4  UNK   900      30.923 -48.255 -60.007  1.00  0.00     0.014 C 
HETATM    7  C5  UNK   900      31.505 -49.285 -62.155  1.00  0.00     0.018 C 
HETATM    8  C6  UNK   900      32.178 -46.023 -60.275  1.00  0.00    -0.014 C 
HETATM    9  C7  UNK   900      32.835 -47.348 -63.164  1.00  0.00    -0.039 A 
HETATM   10  C8  UNK   900      33.548 -45.448 -60.677  1.00  0.00     0.009 C 
HETATM   11  C9  UNK   900      29.200 -49.692 -61.178  1.00  0.00     0.015 C 
HETATM   12  C10 UNK   900      31.196 -50.778 -60.135  1.00  0.00     0.015 C 
HETATM   13  C11 UNK   900      33.625 -46.271 -63.125  1.00  0.00     0.022 A 
HETATM   14  C12 UNK   900      33.766 -45.146 -62.159  1.00  0.00     0.045 C 
HETATM   15  C13 UNK   900      31.027 -45.119 -60.722  1.00  0.00     0.010 C 
HETATM   16  C14 UNK   900      33.050 -48.106 -64.423  1.00  0.00     0.214 A 
HETATM   17  C15 UNK   900      34.420 -46.293 -64.368  1.00  0.00     0.289 A 
ENDROOT
TORSDOF 0
ENDMDL
MODEL 6
REMARK VINA RESULT:      -5.4     30.329     32.567
REMARK  0 active torsions:
REMARK  status: ('A' for Active; 'I' for Inactive)
ROOT
HETATM    1  O1  UNK   900       1.017 -61.952 -61.238  1.00  0.00    -0.313 OA
HETATM    2  O2  UNK   900       2.537 -60.366 -60.586  1.00  0.00    -0.260 OA
HETATM    3  C1  UNK   900       4.391 -65.318 -62.085  1.00  0.00    -0.002 C 
HETATM    4  C2  UNK   900       2.968 -65.117 -61.547  1.00  0.00     0.022 C 
HETATM    5  C3  UNK   900       3.011 -67.191 -62.858  1.00  0.00    -0.047 C 
HETATM    6  C4  UNK   900       4.432 -66.828 -62.364  1.00  0.00     0.014 C 
HETATM    7  C5  UNK   900       2.157 -65.934 -62.569  1.00  0.00     0.018 C 
HETATM    8  C6  UNK   900       5.554 -64.816 -61.213  1.00  0.00    -0.014 C 
HETATM    9  C7  UNK   900       2.511 -63.699 -61.379  1.00  0.00    -0.039 A 
HETATM   10  C8  UNK   900       5.694 -63.287 -61.318  1.00  0.00     0.009 C 
HETATM   11  C9  UNK   900       2.472 -68.405 -62.090  1.00  0.00     0.015 C 
HETATM   12  C10 UNK   900       3.013 -67.506 -64.359  1.00  0.00     0.015 C 
HETATM   13  C11 UNK   900       3.216 -62.634 -60.987  1.00  0.00     0.022 A 
HETATM   14  C12 UNK   900       4.642 -62.443 -60.600  1.00  0.00     0.045 C 
HETATM   15  C13 UNK   900       5.519 -65.286 -59.756  1.00  0.00     0.010 C 
HETATM   16  C14 UNK   900       1.081 -63.341 -61.552  1.00  0.00     0.214 A 
HETATM   17  C15 UNK   900       2.263 -61.510 -60.907  1.00  0.00     0.289 A 
ENDROOT
TORSDOF 0
ENDMDL
MODEL 7
REMARK VINA RESULT:      -5.2     29.206     32.389
REMARK  0 active torsions:
REMARK  status: ('A' for Active; 'I' for Inactive)
ROOT
HETATM    1  O1  UNK   900       5.909 -28.989 -77.794  1.00  0.00    -0.313 OA
HETATM    2  O2  UNK   900       5.925 -28.658 -80.061  1.00  0.00    -0.260 OA
HETATM    3  C1  UNK   900      10.735 -29.043 -77.433  1.00  0.00    -0.002 C 
HETATM    4  C2  UNK   900       9.458 -28.587 -76.716  1.00  0.00     0.022 C 
HETATM    5  C3  UNK   900      11.028 -29.430 -75.030  1.00  0.00    -0.047 C 
HETATM    6  C4  UNK   900      11.783 -28.996 -76.310  1.00  0.00     0.014 C 
HETATM    7  C5  UNK   900       9.535 -29.429 -75.429  1.00  0.00     0.018 C 
HETATM    8  C6  UNK   900      11.149 -28.274 -78.698  1.00  0.00    -0.014 C 
HETATM    9  C7  UNK   900       8.175 -28.730 -77.480  1.00  0.00    -0.039 A 
HETATM   10  C8  UNK   900      10.285 -28.697 -79.900  1.00  0.00     0.009 C 
HETATM   11  C9  UNK   900      11.289 -28.434 -73.892  1.00  0.00     0.015 C 
HETATM   12  C10 UNK   900      11.464 -30.830 -74.581  1.00  0.00     0.015 C 
HETATM   13  C11 UNK   900       7.957 -28.558 -78.786  1.00  0.00     0.022 A 
HETATM   14  C12 UNK   900       8.842 -28.193 -79.927  1.00  0.00     0.045 C 
HETATM   15  C13 UNK   900      11.202 -26.752 -78.542  1.00  0.00     0.010 C 
HETATM   16  C14 UNK   900       6.900 -29.002 -76.770  1.00  0.00     0.214 A 
HETATM   17  C15 UNK   900       6.506 -28.735 -78.992  1.00  0.00     0.289 A 
ENDROOT
TORSDOF 0
ENDMDL
MODEL 8
REMARK VINA RESULT:      -5.2      3.201      5.406
REMARK  0 active torsions:
REMARK  status: ('A' for Active; 'I' for Inactive)
ROOT
HETATM    1  O1  UNK   900      35.007 -48.574 -64.843  1.00  0.00    -0.313 OA
HETATM    2  O2  UNK   900      34.659 -47.568 -66.871  1.00  0.00    -0.260 OA
HETATM    3  C1  UNK   900      31.278 -46.335 -62.718  1.00  0.00    -0.002 C 
HETATM    4  C2  UNK   900      32.039 -47.667 -62.773  1.00  0.00     0.022 C 
HETATM    5  C3  UNK   900      31.427 -47.224 -60.438  1.00  0.00    -0.047 C 
HETATM    6  C4  UNK   900      30.494 -46.453 -61.402  1.00  0.00     0.014 C 
HETATM    7  C5  UNK   900      32.574 -47.750 -61.331  1.00  0.00     0.018 C 
HETATM    8  C6  UNK   900      30.406 -45.970 -63.930  1.00  0.00    -0.014 C 
HETATM    9  C7  UNK   900      33.089 -47.794 -63.836  1.00  0.00    -0.039 A 
HETATM   10  C8  UNK   900      31.275 -45.463 -65.094  1.00  0.00     0.009 C 
HETATM   11  C9  UNK   900      30.673 -48.385 -59.778  1.00  0.00     0.015 C 
HETATM   12  C10 UNK   900      31.978 -46.298 -59.346  1.00  0.00     0.015 C 
HETATM   13  C11 UNK   900      33.078 -47.315 -65.082  1.00  0.00     0.022 A 
HETATM   14  C12 UNK   900      32.093 -46.507 -65.855  1.00  0.00     0.045 C 
HETATM   15  C13 UNK   900      29.432 -47.062 -64.379  1.00  0.00     0.010 C 
HETATM   16  C14 UNK   900      34.297 -48.625 -63.608  1.00  0.00     0.214 A 
HETATM   17  C15 UNK   900      34.313 -47.803 -65.726  1.00  0.00     0.289 A 
ENDROOT
TORSDOF 0
ENDMDL
MODEL 9
REMARK VINA RESULT:      -5.1     32.495     34.362
REMARK  0 active torsions:
REMARK  status: ('A' for Active; 'I' for Inactive)
ROOT
HETATM    1  O1  UNK   900      24.193 -38.259 -97.767  1.00  0.00    -0.313 OA
HETATM    2  O2  UNK   900      24.537 -36.004 -97.554  1.00  0.00    -0.260 OA
HETATM    3  C1  UNK   900      26.987 -39.380 -93.976  1.00  0.00    -0.002 C 
HETATM    4  C2  UNK   900      25.698 -39.777 -94.709  1.00  0.00     0.022 C 
HETATM    5  C3  UNK   900      26.832 -41.827 -93.978  1.00  0.00    -0.047 C 
HETATM    6  C4  UNK   900      27.277 -40.620 -93.117  1.00  0.00     0.014 C 
HETATM    7  C5  UNK   900      26.054 -41.205 -95.161  1.00  0.00     0.018 C 
HETATM    8  C6  UNK   900      26.971 -38.064 -93.181  1.00  0.00    -0.014 C 
HETATM    9  C7  UNK   900      25.250 -38.866 -95.813  1.00  0.00    -0.039 A 
HETATM   10  C8  UNK   900      27.097 -36.855 -94.125  1.00  0.00     0.009 C 
HETATM   11  C9  UNK   900      25.929 -42.761 -93.162  1.00  0.00     0.015 C 
HETATM   12  C10 UNK   900      28.043 -42.618 -94.488  1.00  0.00     0.015 C 
HETATM   13  C11 UNK   900      25.328 -37.535 -95.882  1.00  0.00     0.022 A 
HETATM   14  C12 UNK   900      25.868 -36.497 -94.960  1.00  0.00     0.045 C 
HETATM   15  C13 UNK   900      25.798 -37.909 -92.210  1.00  0.00     0.010 C 
HETATM   16  C14 UNK   900      24.522 -39.407 -96.988  1.00  0.00     0.214 A 
HETATM   17  C15 UNK   900      24.662 -37.144 -97.140  1.00  0.00     0.289 A 
ENDROOT
TORSDOF 0
ENDMDL
