MODEL 1
REMARK VINA RESULT:      -7.0      0.000      0.000
REMARK  3 active torsions:
REMARK  status: ('A' for Active; 'I' for Inactive)
REMARK    1  A    between atoms: O4_4  and  C13_19 
REMARK    2  A    between atoms: O5_5  and  C14_20 
REMARK    3  A    between atoms: C10_16  and  C14_20 
ROOT
HETATM    1  O1  UNK   900      31.563 -47.874 -60.747  1.00  0.00    -0.344 OA
HETATM    2  O2  UNK   900      35.312 -49.800 -60.316  1.00  0.00    -0.345 OA
HETATM    3  O3  UNK   900      34.933 -45.593 -60.996  1.00  0.00    -0.292 OA
HETATM    4  C1  UNK   900      31.577 -46.703 -61.575  1.00  0.00     0.132 C 
HETATM    5  C2  UNK   900      33.975 -47.726 -60.607  1.00  0.00     0.046 C 
HETATM    6  C3  UNK   900      32.817 -48.395 -60.513  1.00  0.00     0.095 C 
HETATM    7  C4  UNK   900      32.540 -45.658 -61.023  1.00  0.00     0.116 C 
HETATM    8  C5  UNK   900      32.882 -49.801 -60.108  1.00  0.00     0.048 A 
HETATM    9  C6  UNK   900      33.912 -46.271 -60.910  1.00  0.00     0.163 C 
HETATM   10  C7  UNK   900      35.303 -48.367 -60.358  1.00  0.00     0.221 C 
HETATM   11  C8  UNK   900      34.131 -50.431 -60.027  1.00  0.00     0.086 A 
HETATM   12  C9  UNK   900      30.155 -46.161 -61.632  1.00  0.00     0.040 C 
HETATM   13  C10 UNK   900      31.730 -50.549 -59.816  1.00  0.00     0.056 A 
HETATM   14  C11 UNK   900      34.227 -51.781 -59.679  1.00  0.00     0.074 A 
HETATM   15  C12 UNK   900      31.829 -51.895 -59.456  1.00  0.00     0.056 A 
HETATM   16  C13 UNK   900      33.077 -52.511 -59.389  1.00  0.00     0.071 A 
ENDROOT
BRANCH  13  17
HETATM   17  C14 UNK   900      30.370 -50.019 -59.834  1.00  0.00     0.177 C 
HETATM   18  O6  UNK   900      29.584 -50.112 -60.777  1.00  0.00    -0.646 OA
BRANCH  17  19
HETATM   19  O5  UNK   900      30.048 -49.392 -58.671  1.00  0.00    -0.773 OA
HETATM   20  H14 UNK   900      29.936 -50.028 -57.933  1.00  0.00     0.167 HD
ENDBRANCH  17  19
ENDBRANCH  13  17
BRANCH  16  21
HETATM   21  O4  UNK   900      33.171 -53.824 -59.043  1.00  0.00    -0.356 OA
HETATM   22  C15 UNK   900      34.431 -54.460 -59.252  1.00  0.00     0.210 C 
ENDBRANCH  16  21
TORSDOF 3
ENDMDL
MODEL 2
REMARK VINA RESULT:      -6.7     10.458     13.792
REMARK  3 active torsions:
REMARK  status: ('A' for Active; 'I' for Inactive)
REMARK    1  A    between atoms: O4_4  and  C13_19 
REMARK    2  A    between atoms: O5_5  and  C14_20 
REMARK    3  A    between atoms: C10_16  and  C14_20 
ROOT
HETATM    1  O1  UNK   900      35.155 -38.800 -57.070  1.00  0.00    -0.344 OA
HETATM    2  O2  UNK   900      37.140 -36.308 -59.863  1.00  0.00    -0.345 OA
HETATM    3  O3  UNK   900      38.146 -40.430 -59.310  1.00  0.00    -0.292 OA
HETATM    4  C1  UNK   900      35.954 -39.864 -56.534  1.00  0.00     0.132 C 
HETATM    5  C2  UNK   900      36.792 -38.543 -58.833  1.00  0.00     0.046 C 
HETATM    6  C3  UNK   900      35.782 -38.097 -58.075  1.00  0.00     0.095 C 
HETATM    7  C4  UNK   900      36.459 -40.776 -57.646  1.00  0.00     0.116 C 
HETATM    8  C5  UNK   900      35.280 -36.747 -58.347  1.00  0.00     0.048 A 
HETATM    9  C6  UNK   900      37.235 -39.950 -58.640  1.00  0.00     0.163 C 
HETATM   10  C7  UNK   900      37.439 -37.711 -59.895  1.00  0.00     0.221 C 
HETATM   11  C8  UNK   900      35.987 -35.922 -59.232  1.00  0.00     0.086 A 
HETATM   12  C9  UNK   900      35.092 -40.634 -55.543  1.00  0.00     0.040 C 
HETATM   13  C10 UNK   900      34.124 -36.240 -57.733  1.00  0.00     0.056 A 
HETATM   14  C11 UNK   900      35.558 -34.617 -59.486  1.00  0.00     0.074 A 
HETATM   15  C12 UNK   900      33.689 -34.940 -57.998  1.00  0.00     0.056 A 
HETATM   16  C13 UNK   900      34.407 -34.128 -58.873  1.00  0.00     0.071 A 
ENDROOT
BRANCH  13  17
HETATM   17  C14 UNK   900      33.277 -36.993 -56.813  1.00  0.00     0.177 C 
HETATM   18  O6  UNK   900      33.406 -37.019 -55.588  1.00  0.00    -0.646 OA
BRANCH  17  19
HETATM   19  O5  UNK   900      32.302 -37.684 -57.460  1.00  0.00    -0.773 OA
HETATM   20  H14 UNK   900      31.622 -38.024 -56.840  1.00  0.00     0.167 HD
ENDBRANCH  17  19
ENDBRANCH  13  17
BRANCH  16  21
HETATM   21  O4  UNK   900      33.985 -32.859 -59.126  1.00  0.00    -0.356 OA
HETATM   22  C15 UNK   900      34.643 -31.805 -58.424  1.00  0.00     0.210 C 
ENDBRANCH  16  21
TORSDOF 3
ENDMDL
MODEL 3
REMARK VINA RESULT:      -6.5      3.811      6.103
REMARK  3 active torsions:
REMARK  status: ('A' for Active; 'I' for Inactive)
REMARK    1  A    between atoms: O4_4  and  C13_19 
REMARK    2  A    between atoms: O5_5  and  C14_20 
REMARK    3  A    between atoms: C10_16  and  C14_20 
ROOT
HETATM    1  O1  UNK   900      32.041 -44.307 -64.055  1.00  0.00    -0.344 OA
HETATM    2  O2  UNK   900      29.588 -47.584 -65.147  1.00  0.00    -0.345 OA
HETATM    3  O3  UNK   900      31.275 -44.895 -68.016  1.00  0.00    -0.292 OA
HETATM    4  C1  UNK   900      31.985 -43.187 -64.949  1.00  0.00     0.132 C 
HETATM    5  C2  UNK   900      31.021 -45.657 -65.785  1.00  0.00     0.046 C 
HETATM    6  C3  UNK   900      31.344 -45.405 -64.509  1.00  0.00     0.095 C 
HETATM    7  C4  UNK   900      32.408 -43.593 -66.356  1.00  0.00     0.116 C 
HETATM    8  C5  UNK   900      30.940 -46.392 -63.504  1.00  0.00     0.048 A 
HETATM    9  C6  UNK   900      31.521 -44.718 -66.825  1.00  0.00     0.163 C 
HETATM   10  C7  UNK   900      30.241 -46.864 -66.201  1.00  0.00     0.221 C 
HETATM   11  C8  UNK   900      30.083 -47.435 -63.879  1.00  0.00     0.086 A 
HETATM   12  C9  UNK   900      32.904 -42.107 -64.393  1.00  0.00     0.040 C 
HETATM   13  C10 UNK   900      31.367 -46.318 -62.169  1.00  0.00     0.056 A 
HETATM   14  C11 UNK   900      29.649 -48.373 -62.938  1.00  0.00     0.074 A 
HETATM   15  C12 UNK   900      30.943 -47.263 -61.233  1.00  0.00     0.056 A 
HETATM   16  C13 UNK   900      30.082 -48.289 -61.617  1.00  0.00     0.071 A 
ENDROOT
BRANCH  13  17
HETATM   17  C14 UNK   900      32.278 -45.304 -61.645  1.00  0.00     0.177 C 
HETATM   18  O6  UNK   900      33.501 -45.426 -61.555  1.00  0.00    -0.646 OA
BRANCH  17  19
HETATM   19  O5  UNK   900      31.624 -44.179 -61.252  1.00  0.00    -0.773 OA
HETATM   20  H14 UNK   900      31.466 -43.568 -62.004  1.00  0.00     0.167 HD
ENDBRANCH  17  19
ENDBRANCH  13  17
BRANCH  16  21
HETATM   21  O4  UNK   900      29.665 -49.206 -60.702  1.00  0.00    -0.356 OA
HETATM   22  C15 UNK   900      30.402 -49.287 -59.483  1.00  0.00     0.210 C 
ENDBRANCH  16  21
TORSDOF 3
ENDMDL
MODEL 4
REMARK VINA RESULT:      -6.4     10.175     12.171
REMARK  3 active torsions:
REMARK  status: ('A' for Active; 'I' for Inactive)
REMARK    1  A    between atoms: O4_4  and  C13_19 
REMARK    2  A    between atoms: O5_5  and  C14_20 
REMARK    3  A    between atoms: C10_16  and  C14_20 
ROOT
HETATM    1  O1  UNK   900      34.913 -36.371 -57.670  1.00  0.00    -0.344 OA
HETATM    2  O2  UNK   900      37.521 -39.519 -58.786  1.00  0.00    -0.345 OA
HETATM    3  O3  UNK   900      37.605 -35.669 -60.650  1.00  0.00    -0.292 OA
HETATM    4  C1  UNK   900      34.594 -35.450 -58.721  1.00  0.00     0.132 C 
HETATM    5  C2  UNK   900      36.766 -37.162 -59.011  1.00  0.00     0.046 C 
HETATM    6  C3  UNK   900      35.868 -37.298 -58.025  1.00  0.00     0.095 C 
HETATM    7  C4  UNK   900      35.856 -34.792 -59.269  1.00  0.00     0.116 C 
HETATM    8  C5  UNK   900      35.915 -38.532 -57.237  1.00  0.00     0.048 A 
HETATM    9  C6  UNK   900      36.799 -35.868 -59.744  1.00  0.00     0.163 C 
HETATM   10  C7  UNK   900      37.763 -38.224 -59.353  1.00  0.00     0.221 C 
HETATM   11  C8  UNK   900      36.745 -39.580 -57.659  1.00  0.00     0.086 A 
HETATM   12  C9  UNK   900      33.640 -34.409 -58.150  1.00  0.00     0.040 C 
HETATM   13  C10 UNK   900      35.140 -38.711 -56.080  1.00  0.00     0.056 A 
HETATM   14  C11 UNK   900      36.786 -40.785 -56.951  1.00  0.00     0.074 A 
HETATM   15  C12 UNK   900      35.193 -39.911 -55.367  1.00  0.00     0.056 A 
HETATM   16  C13 UNK   900      36.014 -40.948 -55.804  1.00  0.00     0.071 A 
ENDROOT
BRANCH  13  17
HETATM   17  C14 UNK   900      34.254 -37.700 -55.511  1.00  0.00     0.177 C 
HETATM   18  O6  UNK   900      33.031 -37.665 -55.655  1.00  0.00    -0.646 OA
BRANCH  17  19
HETATM   19  O5  UNK   900      34.933 -36.771 -54.786  1.00  0.00    -0.773 OA
HETATM   20  H14 UNK   900      35.849 -37.063 -54.587  1.00  0.00     0.167 HD
ENDBRANCH  17  19
ENDBRANCH  13  17
BRANCH  16  21
HETATM   21  O4  UNK   900      36.060 -42.118 -55.111  1.00  0.00    -0.356 OA
HETATM   22  C15 UNK   900      37.330 -42.516 -54.595  1.00  0.00     0.210 C 
ENDBRANCH  16  21
TORSDOF 3
ENDMDL
MODEL 5
REMARK VINA RESULT:      -6.4     31.541     33.812
REMARK  3 active torsions:
REMARK  status: ('A' for Active; 'I' for Inactive)
REMARK    1  A    between atoms: O4_4  and  C13_19 
REMARK    2  A    between atoms: O5_5  and  C14_20 
REMARK    3  A    between atoms: C10_16  and  C14_20 
ROOT
HETATM    1  O1  UNK   900       8.948 -68.965 -49.411  1.00  0.00    -0.344 OA
HETATM    2  O2  UNK   900       5.747 -69.882 -52.030  1.00  0.00    -0.345 OA
HETATM    3  O3  UNK   900       8.070 -72.892 -50.066  1.00  0.00    -0.292 OA
HETATM    4  C1  UNK   900       9.989 -69.950 -49.360  1.00  0.00     0.132 C 
HETATM    5  C2  UNK   900       7.520 -70.618 -50.452  1.00  0.00     0.046 C 
HETATM    6  C3  UNK   900       7.860 -69.355 -50.160  1.00  0.00     0.095 C 
HETATM    7  C4  UNK   900       9.438 -71.299 -48.913  1.00  0.00     0.116 C 
HETATM    8  C5  UNK   900       6.990 -68.289 -50.664  1.00  0.00     0.048 A 
HETATM    9  C6  UNK   900       8.333 -71.710 -49.854  1.00  0.00     0.163 C 
HETATM   10  C7  UNK   900       6.332 -70.964 -51.292  1.00  0.00     0.221 C 
HETATM   11  C8  UNK   900       5.974 -68.611 -51.573  1.00  0.00     0.086 A 
HETATM   12  C9  UNK   900      11.054 -69.448 -48.394  1.00  0.00     0.040 C 
HETATM   13  C10 UNK   900       7.152 -66.948 -50.283  1.00  0.00     0.056 A 
HETATM   14  C11 UNK   900       5.149 -67.615 -52.102  1.00  0.00     0.074 A 
HETATM   15  C12 UNK   900       6.319 -65.955 -50.803  1.00  0.00     0.056 A 
HETATM   16  C13 UNK   900       5.318 -66.288 -51.713  1.00  0.00     0.071 A 
ENDROOT
BRANCH  13  17
HETATM   17  C14 UNK   900       8.148 -66.472 -49.328  1.00  0.00     0.177 C 
HETATM   18  O6  UNK   900       8.004 -66.445 -48.105  1.00  0.00    -0.646 OA
BRANCH  17  19
HETATM   19  O5  UNK   900       9.285 -66.047 -49.941  1.00  0.00    -0.773 OA
HETATM   20  H14 UNK   900       9.767 -66.786 -50.370  1.00  0.00     0.167 HD
ENDBRANCH  17  19
ENDBRANCH  13  17
BRANCH  16  21
HETATM   21  O4  UNK   900       4.511 -65.319 -52.222  1.00  0.00    -0.356 OA
HETATM   22  C15 UNK   900       3.109 -65.453 -51.986  1.00  0.00     0.210 C 
ENDBRANCH  16  21
TORSDOF 3
ENDMDL
MODEL 6
REMARK VINA RESULT:      -6.3     10.329     13.013
REMARK  3 active torsions:
REMARK  status: ('A' for Active; 'I' for Inactive)
REMARK    1  A    between atoms: O4_4  and  C13_19 
REMARK    2  A    between atoms: O5_5  and  C14_20 
REMARK    3  A    between atoms: C10_16  and  C14_20 
ROOT
HETATM    1  O1  UNK   900      36.636 -36.396 -59.508  1.00  0.00    -0.344 OA
HETATM    2  O2  UNK   900      33.820 -36.520 -56.344  1.00  0.00    -0.345 OA
HETATM    3  O3  UNK   900      34.030 -33.283 -59.134  1.00  0.00    -0.292 OA
HETATM    4  C1  UNK   900      37.030 -35.079 -59.915  1.00  0.00     0.132 C 
HETATM    5  C2  UNK   900      34.744 -35.410 -58.366  1.00  0.00     0.046 C 
HETATM    6  C3  UNK   900      35.620 -36.402 -58.577  1.00  0.00     0.095 C 
HETATM    7  C4  UNK   900      35.823 -34.270 -60.377  1.00  0.00     0.116 C 
HETATM    8  C5  UNK   900      35.477 -37.611 -57.763  1.00  0.00     0.048 A 
HETATM    9  C6  UNK   900      34.811 -34.224 -59.262  1.00  0.00     0.163 C 
HETATM   10  C7  UNK   900      33.677 -35.479 -57.320  1.00  0.00     0.221 C 
HETATM   11  C8  UNK   900      34.579 -37.607 -56.687  1.00  0.00     0.086 A 
HETATM   12  C9  UNK   900      38.050 -35.228 -61.035  1.00  0.00     0.040 C 
HETATM   13  C10 UNK   900      36.226 -38.772 -58.010  1.00  0.00     0.056 A 
HETATM   14  C11 UNK   900      34.444 -38.731 -55.868  1.00  0.00     0.074 A 
HETATM   15  C12 UNK   900      36.081 -39.899 -57.198  1.00  0.00     0.056 A 
HETATM   16  C13 UNK   900      35.192 -39.878 -56.126  1.00  0.00     0.071 A 
ENDROOT
BRANCH  13  17
HETATM   17  C14 UNK   900      37.177 -38.928 -59.107  1.00  0.00     0.177 C 
HETATM   18  O6  UNK   900      38.402 -38.869 -58.999  1.00  0.00    -0.646 OA
BRANCH  17  19
HETATM   19  O5  UNK   900      36.556 -39.149 -60.297  1.00  0.00    -0.773 OA
HETATM   20  H14 UNK   900      35.586 -39.018 -60.232  1.00  0.00     0.167 HD
ENDBRANCH  17  19
ENDBRANCH  13  17
BRANCH  16  21
HETATM   21  O4  UNK   900      35.055 -40.974 -55.332  1.00  0.00    -0.356 OA
HETATM   22  C15 UNK   900      36.228 -41.752 -55.093  1.00  0.00     0.210 C 
ENDBRANCH  16  21
TORSDOF 3
ENDMDL
MODEL 7
REMARK VINA RESULT:      -6.1     12.348     14.522
REMARK  3 active torsions:
REMARK  status: ('A' for Active; 'I' for Inactive)
REMARK    1  A    between atoms: O4_4  and  C13_19 
REMARK    2  A    between atoms: O5_5  and  C14_20 
REMARK    3  A    between atoms: C10_16  and  C14_20 
ROOT
HETATM    1  O1  UNK   900      36.683 -34.359 -59.809  1.00  0.00    -0.344 OA
HETATM    2  O2  UNK   900      36.978 -38.112 -57.866  1.00  0.00    -0.345 OA
HETATM    3  O3  UNK   900      40.234 -36.352 -60.014  1.00  0.00    -0.292 OA
HETATM    4  C1  UNK   900      37.526 -34.206 -60.959  1.00  0.00     0.132 C 
HETATM    5  C2  UNK   900      38.024 -36.265 -59.159  1.00  0.00     0.046 C 
HETATM    6  C3  UNK   900      36.904 -35.531 -59.121  1.00  0.00     0.095 C 
HETATM    7  C4  UNK   900      38.993 -34.385 -60.586  1.00  0.00     0.116 C 
HETATM    8  C5  UNK   900      35.819 -36.002 -58.255  1.00  0.00     0.048 A 
HETATM    9  C6  UNK   900      39.171 -35.739 -59.946  1.00  0.00     0.163 C 
HETATM   10  C7  UNK   900      38.183 -37.543 -58.397  1.00  0.00     0.221 C 
HETATM   11  C8  UNK   900      35.916 -37.271 -57.669  1.00  0.00     0.086 A 
HETATM   12  C9  UNK   900      37.274 -32.819 -61.535  1.00  0.00     0.040 C 
HETATM   13  C10 UNK   900      34.672 -35.232 -58.008  1.00  0.00     0.056 A 
HETATM   14  C11 UNK   900      34.883 -37.766 -56.868  1.00  0.00     0.074 A 
HETATM   15  C12 UNK   900      33.647 -35.723 -57.196  1.00  0.00     0.056 A 
HETATM   16  C13 UNK   900      33.752 -36.991 -56.628  1.00  0.00     0.071 A 
ENDROOT
BRANCH  13  17
HETATM   17  C14 UNK   900      34.448 -33.887 -58.529  1.00  0.00     0.177 C 
HETATM   18  O6  UNK   900      34.697 -32.841 -57.927  1.00  0.00    -0.646 OA
BRANCH  17  19
HETATM   19  O5  UNK   900      33.919 -33.902 -59.781  1.00  0.00    -0.773 OA
HETATM   20  H14 UNK   900      33.188 -33.255 -59.876  1.00  0.00     0.167 HD
ENDBRANCH  17  19
ENDBRANCH  13  17
BRANCH  16  21
HETATM   21  O4  UNK   900      32.750 -37.470 -55.842  1.00  0.00    -0.356 OA
HETATM   22  C15 UNK   900      32.994 -38.699 -55.158  1.00  0.00     0.210 C 
ENDBRANCH  16  21
TORSDOF 3
ENDMDL
MODEL 8
REMARK VINA RESULT:      -6.0     30.413     32.578
REMARK  3 active torsions:
REMARK  status: ('A' for Active; 'I' for Inactive)
REMARK    1  A    between atoms: O4_4  and  C13_19 
REMARK    2  A    between atoms: O5_5  and  C14_20 
REMARK    3  A    between atoms: C10_16  and  C14_20 
ROOT
HETATM    1  O1  UNK   900      24.038 -21.195 -76.316  1.00  0.00    -0.344 OA
HETATM    2  O2  UNK   900      25.945 -23.309 -73.178  1.00  0.00    -0.345 OA
HETATM    3  O3  UNK   900      27.396 -23.330 -77.203  1.00  0.00    -0.292 OA
HETATM    4  C1  UNK   900      24.196 -21.775 -77.618  1.00  0.00     0.132 C 
HETATM    5  C2  UNK   900      25.875 -22.571 -75.550  1.00  0.00     0.046 C 
HETATM    6  C3  UNK   900      24.782 -21.824 -75.343  1.00  0.00     0.095 C 
HETATM    7  C4  UNK   900      25.670 -21.871 -77.995  1.00  0.00     0.116 C 
HETATM    8  C5  UNK   900      24.345 -21.639 -73.956  1.00  0.00     0.048 A 
HETATM    9  C6  UNK   900      26.390 -22.674 -76.942  1.00  0.00     0.163 C 
HETATM   10  C7  UNK   900      26.621 -23.242 -74.441  1.00  0.00     0.221 C 
HETATM   11  C8  UNK   900      24.954 -22.392 -72.943  1.00  0.00     0.086 A 
HETATM   12  C9  UNK   900      23.435 -20.902 -78.608  1.00  0.00     0.040 C 
HETATM   13  C10 UNK   900      23.320 -20.747 -73.607  1.00  0.00     0.056 A 
HETATM   14  C11 UNK   900      24.538 -22.268 -71.615  1.00  0.00     0.074 A 
HETATM   15  C12 UNK   900      22.913 -20.614 -72.278  1.00  0.00     0.056 A 
HETATM   16  C13 UNK   900      23.521 -21.376 -71.282  1.00  0.00     0.071 A 
ENDROOT
BRANCH  13  17
HETATM   17  C14 UNK   900      22.616 -19.883 -74.551  1.00  0.00     0.177 C 
HETATM   18  O6  UNK   900      22.889 -18.702 -74.773  1.00  0.00    -0.646 OA
BRANCH  17  19
HETATM   19  O5  UNK   900      21.598 -20.529 -75.179  1.00  0.00    -0.773 OA
HETATM   20  H14 UNK   900      21.861 -20.845 -76.069  1.00  0.00     0.167 HD
ENDBRANCH  17  19
ENDBRANCH  13  17
BRANCH  16  21
HETATM   21  O4  UNK   900      23.120 -21.250 -69.988  1.00  0.00    -0.356 OA
HETATM   22  C15 UNK   900      23.918 -20.425 -69.140  1.00  0.00     0.210 C 
ENDBRANCH  16  21
TORSDOF 3
ENDMDL
MODEL 9
REMARK VINA RESULT:      -5.9     13.438     16.561
REMARK  3 active torsions:
REMARK  status: ('A' for Active; 'I' for Inactive)
REMARK    1  A    between atoms: O4_4  and  C13_19 
REMARK    2  A    between atoms: O5_5  and  C14_20 
REMARK    3  A    between atoms: C10_16  and  C14_20 
ROOT
HETATM    1  O1  UNK   900      36.705 -31.669 -60.141  1.00  0.00    -0.344 OA
HETATM    2  O2  UNK   900      37.141 -35.882 -60.257  1.00  0.00    -0.345 OA
HETATM    3  O3  UNK   900      40.090 -33.202 -61.818  1.00  0.00    -0.292 OA
HETATM    4  C1  UNK   900      37.362 -30.964 -61.203  1.00  0.00     0.132 C 
HETATM    5  C2  UNK   900      38.049 -33.608 -60.682  1.00  0.00     0.046 C 
HETATM    6  C3  UNK   900      36.981 -33.019 -60.127  1.00  0.00     0.095 C 
HETATM    7  C4  UNK   900      38.860 -31.244 -61.196  1.00  0.00     0.116 C 
HETATM    8  C5  UNK   900      36.027 -33.879 -59.422  1.00  0.00     0.048 A 
HETATM    9  C6  UNK   900      39.078 -32.732 -61.303  1.00  0.00     0.163 C 
HETATM   10  C7  UNK   900      38.271 -35.086 -60.644  1.00  0.00     0.221 C 
HETATM   11  C8  UNK   900      36.161 -35.270 -59.523  1.00  0.00     0.086 A 
HETATM   12  C9  UNK   900      37.082 -29.479 -61.014  1.00  0.00     0.040 C 
HETATM   13  C10 UNK   900      34.967 -33.358 -58.664  1.00  0.00     0.056 A 
HETATM   14  C11 UNK   900      35.247 -36.121 -58.893  1.00  0.00     0.074 A 
HETATM   15  C12 UNK   900      34.063 -34.209 -58.025  1.00  0.00     0.056 A 
HETATM   16  C13 UNK   900      34.202 -35.590 -58.142  1.00  0.00     0.071 A 
ENDROOT
BRANCH  13  17
HETATM   17  C14 UNK   900      34.722 -31.934 -58.451  1.00  0.00     0.177 C 
HETATM   18  O6  UNK   900      33.898 -31.256 -59.065  1.00  0.00    -0.646 OA
BRANCH  17  19
HETATM   19  O5  UNK   900      35.518 -31.415 -57.479  1.00  0.00    -0.773 OA
HETATM   20  H14 UNK   900      36.250 -32.025 -57.243  1.00  0.00     0.167 HD
ENDBRANCH  17  19
ENDBRANCH  13  17
BRANCH  16  21
HETATM   21  O4  UNK   900      33.317 -36.418 -57.523  1.00  0.00    -0.356 OA
HETATM   22  C15 UNK   900      32.053 -36.607 -58.159  1.00  0.00     0.210 C 
ENDBRANCH  16  21
TORSDOF 3
ENDMDL
