MODEL 1
REMARK VINA RESULT:      -6.7      0.000      0.000
REMARK  7 active torsions:
REMARK  status: ('A' for Active; 'I' for Inactive)
REMARK    1  A    between atoms: O2_2  and  C4_12 
REMARK    2  A    between atoms: O2_2  and  C6_14 
REMARK    3  A    between atoms: O3_3  and  C1_9 
REMARK    4  A    between atoms: O4_4  and  C2_10 
REMARK    5  A    between atoms: O5_5  and  C5_13 
REMARK    6  A    between atoms: O6_6  and  C14_22 
REMARK    7  A    between atoms: C3_11  and  C5_13 
ROOT
HETATM    1  N1  UNK   900      24.657 -21.593 -73.555  1.00  0.00    -0.241 NA
HETATM    2  N2  UNK   900      26.798 -22.790 -74.812  1.00  0.00    -0.241 NA
HETATM    3  C6  UNK   900      26.135 -20.076 -72.480  1.00  0.00     0.103 A 
HETATM    4  C7  UNK   900      25.905 -21.148 -73.340  1.00  0.00     0.119 A 
HETATM    5  C8  UNK   900      27.423 -19.599 -72.245  1.00  0.00     0.039 A 
HETATM    6  C9  UNK   900      26.992 -21.756 -73.979  1.00  0.00     0.089 A 
HETATM    7  C10 UNK   900      28.500 -20.201 -72.878  1.00  0.00     0.005 A 
HETATM    8  C11 UNK   900      28.278 -21.273 -73.739  1.00  0.00     0.034 A 
HETATM    9  C12 UNK   900      24.463 -22.628 -74.388  1.00  0.00     0.089 A 
HETATM   10  C13 UNK   900      25.549 -23.235 -75.027  1.00  0.00     0.119 A 
HETATM   11  C14 UNK   900      25.320 -24.307 -75.887  1.00  0.00     0.096 A 
HETATM   12  C15 UNK   900      23.178 -23.110 -74.627  1.00  0.00     0.034 A 
HETATM   13  C16 UNK   900      24.032 -24.784 -76.122  1.00  0.00     0.039 A 
HETATM   14  C17 UNK   900      22.955 -24.182 -75.489  1.00  0.00     0.005 A 
ENDROOT
BRANCH   3  15
HETATM   15  O2  UNK   900      25.088 -19.468 -71.846  1.00  0.00    -0.315 OA
BRANCH  15  16
HETATM   16  C4  UNK   900      25.078 -19.525 -70.423  1.00  0.00     0.298 C 
HETATM   17  O1  UNK   900      24.102 -18.618 -69.890  1.00  0.00    -0.348 OA
HETATM   18  C3  UNK   900      22.933 -19.357 -69.487  1.00  0.00     0.179 C 
HETATM   19  C1  UNK   900      23.190 -20.825 -69.822  1.00  0.00     0.182 C 
HETATM   20  C2  UNK   900      24.699 -20.912 -69.925  1.00  0.00     0.205 C 
BRANCH  18  21
HETATM   21  C5  UNK   900      22.719 -19.111 -68.000  1.00  0.00     0.198 C 
BRANCH  21  22
HETATM   22  O5  UNK   900      22.827 -20.347 -67.312  1.00  0.00    -0.398 OA
HETATM   23  H9  UNK   900      23.723 -20.387 -66.935  1.00  0.00     0.209 HD
ENDBRANCH  21  22
ENDBRANCH  18  21
BRANCH  19  24
HETATM   24  O3  UNK   900      22.633 -21.121 -71.100  1.00  0.00    -0.390 OA
HETATM   25  H7  UNK   900      22.475 -20.274 -71.552  1.00  0.00     0.210 HD
ENDBRANCH  19  24
BRANCH  20  26
HETATM   26  O4  UNK   900      25.241 -21.124 -68.628  1.00  0.00    -0.388 OA
HETATM   27  H8  UNK   900      25.539 -22.048 -68.584  1.00  0.00     0.210 HD
ENDBRANCH  20  26
ENDBRANCH  15  16
ENDBRANCH   3  15
BRANCH  11  28
HETATM   28  O6  UNK   900      26.367 -24.915 -76.521  1.00  0.00    -0.358 OA
HETATM   29  H16 UNK   900      26.770 -24.286 -77.144  1.00  0.00     0.217 HD
ENDBRANCH  11  28
TORSDOF 7
ENDMDL
MODEL 2
REMARK VINA RESULT:      -6.5      2.334      4.161
REMARK  7 active torsions:
REMARK  status: ('A' for Active; 'I' for Inactive)
REMARK    1  A    between atoms: O2_2  and  C4_12 
REMARK    2  A    between atoms: O2_2  and  C6_14 
REMARK    3  A    between atoms: O3_3  and  C1_9 
REMARK    4  A    between atoms: O4_4  and  C2_10 
REMARK    5  A    between atoms: O5_5  and  C5_13 
REMARK    6  A    between atoms: O6_6  and  C14_22 
REMARK    7  A    between atoms: C3_11  and  C5_13 
ROOT
HETATM    1  N1  UNK   900      26.228 -21.849 -74.798  1.00  0.00    -0.241 NA
HETATM    2  N2  UNK   900      25.261 -22.590 -77.269  1.00  0.00    -0.241 NA
HETATM    3  C6  UNK   900      24.590 -23.209 -73.747  1.00  0.00     0.103 A 
HETATM    4  C7  UNK   900      25.190 -22.695 -74.893  1.00  0.00     0.119 A 
HETATM    5  C8  UNK   900      23.512 -24.089 -73.825  1.00  0.00     0.039 A 
HETATM    6  C9  UNK   900      24.699 -23.071 -76.148  1.00  0.00     0.089 A 
HETATM    7  C10 UNK   900      23.025 -24.463 -75.069  1.00  0.00     0.005 A 
HETATM    8  C11 UNK   900      23.621 -23.952 -76.221  1.00  0.00     0.034 A 
HETATM    9  C12 UNK   900      26.789 -21.367 -75.918  1.00  0.00     0.089 A 
HETATM   10  C13 UNK   900      26.298 -21.743 -77.173  1.00  0.00     0.119 A 
HETATM   11  C14 UNK   900      26.899 -21.230 -78.320  1.00  0.00     0.096 A 
HETATM   12  C15 UNK   900      27.866 -20.486 -75.846  1.00  0.00     0.034 A 
HETATM   13  C16 UNK   900      27.976 -20.349 -78.242  1.00  0.00     0.039 A 
HETATM   14  C17 UNK   900      28.463 -19.975 -76.997  1.00  0.00     0.005 A 
ENDROOT
BRANCH   3  15
HETATM   15  O2  UNK   900      25.053 -22.854 -72.511  1.00  0.00    -0.315 OA
BRANCH  15  16
HETATM   16  C4  UNK   900      24.104 -22.307 -71.601  1.00  0.00     0.298 C 
HETATM   17  O1  UNK   900      24.741 -21.945 -70.367  1.00  0.00    -0.348 OA
HETATM   18  C3  UNK   900      24.936 -20.518 -70.331  1.00  0.00     0.179 C 
HETATM   19  C1  UNK   900      24.409 -19.959 -71.651  1.00  0.00     0.182 C 
HETATM   20  C2  UNK   900      23.472 -21.038 -72.153  1.00  0.00     0.205 C 
BRANCH  18  21
HETATM   21  C5  UNK   900      24.195 -19.980 -69.115  1.00  0.00     0.198 C 
BRANCH  21  22
HETATM   22  O5  UNK   900      23.355 -21.001 -68.601  1.00  0.00    -0.398 OA
HETATM   23  H9  UNK   900      23.437 -21.766 -69.197  1.00  0.00     0.209 HD
ENDBRANCH  21  22
ENDBRANCH  18  21
BRANCH  19  24
HETATM   24  O3  UNK   900      25.489 -19.834 -72.573  1.00  0.00    -0.390 OA
HETATM   25  H7  UNK   900      26.179 -19.302 -72.142  1.00  0.00     0.210 HD
ENDBRANCH  19  24
BRANCH  20  26
HETATM   26  O4  UNK   900      22.189 -20.845 -71.572  1.00  0.00    -0.388 OA
HETATM   27  H8  UNK   900      21.694 -21.674 -71.677  1.00  0.00     0.210 HD
ENDBRANCH  20  26
ENDBRANCH  15  16
ENDBRANCH   3  15
BRANCH  11  28
HETATM   28  O6  UNK   900      26.436 -21.585 -79.556  1.00  0.00    -0.358 OA
HETATM   29  H16 UNK   900      25.959 -20.832 -79.945  1.00  0.00     0.217 HD
ENDBRANCH  11  28
TORSDOF 7
ENDMDL
MODEL 3
REMARK VINA RESULT:      -6.4      3.245      4.632
REMARK  7 active torsions:
REMARK  status: ('A' for Active; 'I' for Inactive)
REMARK    1  A    between atoms: O2_2  and  C4_12 
REMARK    2  A    between atoms: O2_2  and  C6_14 
REMARK    3  A    between atoms: O3_3  and  C1_9 
REMARK    4  A    between atoms: O4_4  and  C2_10 
REMARK    5  A    between atoms: O5_5  and  C5_13 
REMARK    6  A    between atoms: O6_6  and  C14_22 
REMARK    7  A    between atoms: C3_11  and  C5_13 
ROOT
HETATM    1  N1  UNK   900      24.795 -20.999 -75.784  1.00  0.00    -0.241 NA
HETATM    2  N2  UNK   900      23.335 -22.029 -77.881  1.00  0.00    -0.241 NA
HETATM    3  C6  UNK   900      24.283 -22.918 -74.483  1.00  0.00     0.103 A 
HETATM    4  C7  UNK   900      24.185 -22.189 -75.665  1.00  0.00     0.119 A 
HETATM    5  C8  UNK   900      23.659 -24.156 -74.341  1.00  0.00     0.039 A 
HETATM    6  C9  UNK   900      23.444 -22.712 -76.731  1.00  0.00     0.089 A 
HETATM    7  C10 UNK   900      22.924 -24.675 -75.396  1.00  0.00     0.005 A 
HETATM    8  C11 UNK   900      22.822 -23.951 -76.582  1.00  0.00     0.034 A 
HETATM    9  C12 UNK   900      24.685 -20.316 -76.934  1.00  0.00     0.089 A 
HETATM   10  C13 UNK   900      23.944 -20.838 -77.999  1.00  0.00     0.119 A 
HETATM   11  C14 UNK   900      23.847 -20.110 -79.182  1.00  0.00     0.096 A 
HETATM   12  C15 UNK   900      25.307 -19.078 -77.082  1.00  0.00     0.034 A 
HETATM   13  C16 UNK   900      24.471 -18.872 -79.324  1.00  0.00     0.039 A 
HETATM   14  C17 UNK   900      25.206 -18.353 -78.268  1.00  0.00     0.005 A 
ENDROOT
BRANCH   3  15
HETATM   15  O2  UNK   900      25.001 -22.426 -73.430  1.00  0.00    -0.315 OA
BRANCH  15  16
HETATM   16  C4  UNK   900      24.287 -22.179 -72.223  1.00  0.00     0.298 C 
HETATM   17  O1  UNK   900      25.189 -21.797 -71.173  1.00  0.00    -0.348 OA
HETATM   18  C3  UNK   900      25.123 -20.371 -70.984  1.00  0.00     0.179 C 
HETATM   19  C1  UNK   900      24.132 -19.825 -72.010  1.00  0.00     0.182 C 
HETATM   20  C2  UNK   900      23.300 -21.033 -72.386  1.00  0.00     0.205 C 
BRANCH  18  21
HETATM   21  C5  UNK   900      24.697 -20.114 -69.545  1.00  0.00     0.198 C 
BRANCH  21  22
HETATM   22  O5  UNK   900      24.073 -21.282 -69.036  1.00  0.00    -0.398 OA
HETATM   23  H9  UNK   900      24.765 -21.961 -68.948  1.00  0.00     0.209 HD
ENDBRANCH  21  22
ENDBRANCH  18  21
BRANCH  19  24
HETATM   24  O3  UNK   900      24.844 -19.390 -73.165  1.00  0.00    -0.390 OA
HETATM   25  H7  UNK   900      25.620 -18.891 -72.859  1.00  0.00     0.210 HD
ENDBRANCH  19  24
BRANCH  20  26
HETATM   26  O4  UNK   900      22.238 -21.174 -71.451  1.00  0.00    -0.388 OA
HETATM   27  H8  UNK   900      22.331 -20.464 -70.795  1.00  0.00     0.210 HD
ENDBRANCH  20  26
ENDBRANCH  15  16
ENDBRANCH   3  15
BRANCH  11  28
HETATM   28  O6  UNK   900      23.128 -20.602 -80.235  1.00  0.00    -0.358 OA
HETATM   29  H16 UNK   900      23.596 -20.397 -81.063  1.00  0.00     0.217 HD
ENDBRANCH  11  28
TORSDOF 7
ENDMDL
MODEL 4
REMARK VINA RESULT:      -5.8     31.962     33.641
REMARK  7 active torsions:
REMARK  status: ('A' for Active; 'I' for Inactive)
REMARK    1  A    between atoms: O2_2  and  C4_12 
REMARK    2  A    between atoms: O2_2  and  C6_14 
REMARK    3  A    between atoms: O3_3  and  C1_9 
REMARK    4  A    between atoms: O4_4  and  C2_10 
REMARK    5  A    between atoms: O5_5  and  C5_13 
REMARK    6  A    between atoms: O6_6  and  C14_22 
REMARK    7  A    between atoms: C3_11  and  C5_13 
ROOT
HETATM    1  N1  UNK   900       9.227 -50.989 -75.085  1.00  0.00    -0.241 NA
HETATM    2  N2  UNK   900      10.321 -53.089 -73.675  1.00  0.00    -0.241 NA
HETATM    3  C6  UNK   900       9.412 -49.603 -73.167  1.00  0.00     0.103 A 
HETATM    4  C7  UNK   900       9.586 -50.830 -73.802  1.00  0.00     0.119 A 
HETATM    5  C8  UNK   900       9.779 -49.417 -71.835  1.00  0.00     0.039 A 
HETATM    6  C9  UNK   900      10.141 -51.896 -73.086  1.00  0.00     0.089 A 
HETATM    7  C10 UNK   900      10.329 -50.474 -71.125  1.00  0.00     0.005 A 
HETATM    8  C11 UNK   900      10.507 -51.704 -71.754  1.00  0.00     0.034 A 
HETATM    9  C12 UNK   900       9.405 -52.182 -75.675  1.00  0.00     0.089 A 
HETATM   10  C13 UNK   900       9.961 -53.248 -74.959  1.00  0.00     0.119 A 
HETATM   11  C14 UNK   900      10.136 -54.476 -75.594  1.00  0.00     0.096 A 
HETATM   12  C15 UNK   900       9.040 -52.374 -77.005  1.00  0.00     0.034 A 
HETATM   13  C16 UNK   900       9.769 -54.661 -76.926  1.00  0.00     0.039 A 
HETATM   14  C17 UNK   900       9.217 -53.604 -77.636  1.00  0.00     0.005 A 
ENDROOT
BRANCH   3  15
HETATM   15  O2  UNK   900       8.871 -48.548 -73.847  1.00  0.00    -0.315 OA
BRANCH  15  16
HETATM   16  C4  UNK   900       7.604 -48.076 -73.400  1.00  0.00     0.298 C 
HETATM   17  O1  UNK   900       7.245 -46.869 -74.089  1.00  0.00    -0.348 OA
HETATM   18  C3  UNK   900       6.275 -47.174 -75.110  1.00  0.00     0.179 C 
HETATM   19  C1  UNK   900       6.039 -48.682 -75.071  1.00  0.00     0.182 C 
HETATM   20  C2  UNK   900       6.502 -49.085 -73.687  1.00  0.00     0.205 C 
BRANCH  18  21
HETATM   21  C5  UNK   900       5.021 -46.364 -74.814  1.00  0.00     0.198 C 
BRANCH  21  22
HETATM   22  O5  UNK   900       5.076 -45.908 -73.471  1.00  0.00    -0.398 OA
HETATM   23  H9  UNK   900       5.077 -46.697 -72.902  1.00  0.00     0.209 HD
ENDBRANCH  21  22
ENDBRANCH  18  21
BRANCH  19  24
HETATM   24  O3  UNK   900       6.882 -49.315 -76.031  1.00  0.00    -0.390 OA
HETATM   25  H7  UNK   900       6.353 -49.457 -76.834  1.00  0.00     0.210 HD
ENDBRANCH  19  24
BRANCH  20  26
HETATM   26  O4  UNK   900       5.431 -48.905 -72.769  1.00  0.00    -0.388 OA
HETATM   27  H8  UNK   900       5.760 -49.145 -71.887  1.00  0.00     0.210 HD
ENDBRANCH  20  26
ENDBRANCH  15  16
ENDBRANCH   3  15
BRANCH  11  28
HETATM   28  O6  UNK   900      10.677 -55.530 -74.914  1.00  0.00    -0.358 OA
HETATM   29  H16 UNK   900      11.290 -56.006 -75.500  1.00  0.00     0.217 HD
ENDBRANCH  11  28
TORSDOF 7
ENDMDL
MODEL 5
REMARK VINA RESULT:      -5.8      2.738      5.404
REMARK  7 active torsions:
REMARK  status: ('A' for Active; 'I' for Inactive)
REMARK    1  A    between atoms: O2_2  and  C4_12 
REMARK    2  A    between atoms: O2_2  and  C6_14 
REMARK    3  A    between atoms: O3_3  and  C1_9 
REMARK    4  A    between atoms: O4_4  and  C2_10 
REMARK    5  A    between atoms: O5_5  and  C5_13 
REMARK    6  A    between atoms: O6_6  and  C14_22 
REMARK    7  A    between atoms: C3_11  and  C5_13 
ROOT
HETATM    1  N1  UNK   900      25.967 -21.869 -73.676  1.00  0.00    -0.241 NA
HETATM    2  N2  UNK   900      23.255 -21.607 -73.266  1.00  0.00    -0.241 NA
HETATM    3  C6  UNK   900      26.374 -20.156 -72.082  1.00  0.00     0.103 A 
HETATM    4  C7  UNK   900      25.498 -20.968 -72.797  1.00  0.00     0.119 A 
HETATM    5  C8  UNK   900      25.907 -19.216 -71.166  1.00  0.00     0.039 A 
HETATM    6  C9  UNK   900      24.121 -20.836 -72.590  1.00  0.00     0.089 A 
HETATM    7  C10 UNK   900      24.542 -19.084 -70.959  1.00  0.00     0.005 A 
HETATM    8  C11 UNK   900      23.659 -19.894 -71.671  1.00  0.00     0.034 A 
HETATM    9  C12 UNK   900      25.101 -22.640 -74.352  1.00  0.00     0.089 A 
HETATM   10  C13 UNK   900      23.724 -22.508 -74.145  1.00  0.00     0.119 A 
HETATM   11  C14 UNK   900      22.847 -23.321 -74.859  1.00  0.00     0.096 A 
HETATM   12  C15 UNK   900      25.563 -23.581 -75.270  1.00  0.00     0.034 A 
HETATM   13  C16 UNK   900      23.315 -24.261 -75.776  1.00  0.00     0.039 A 
HETATM   14  C17 UNK   900      24.680 -24.392 -75.983  1.00  0.00     0.005 A 
ENDROOT
BRANCH   3  15
HETATM   15  O2  UNK   900      27.723 -20.268 -72.270  1.00  0.00    -0.315 OA
BRANCH  15  16
HETATM   16  C4  UNK   900      28.409 -19.105 -72.721  1.00  0.00     0.298 C 
HETATM   17  O1  UNK   900      29.812 -19.372 -72.865  1.00  0.00    -0.348 OA
HETATM   18  C3  UNK   900      30.122 -19.556 -74.259  1.00  0.00     0.179 C 
HETATM   19  C1  UNK   900      28.812 -19.423 -75.034  1.00  0.00     0.182 C 
HETATM   20  C2  UNK   900      27.909 -18.660 -74.087  1.00  0.00     0.205 C 
BRANCH  18  21
HETATM   21  C5  UNK   900      31.155 -18.506 -74.647  1.00  0.00     0.198 C 
BRANCH  21  22
HETATM   22  O5  UNK   900      30.711 -17.838 -75.818  1.00  0.00    -0.398 OA
HETATM   23  H9  UNK   900      31.488 -17.403 -76.210  1.00  0.00     0.209 HD
ENDBRANCH  21  22
ENDBRANCH  18  21
BRANCH  19  24
HETATM   24  O3  UNK   900      28.256 -20.719 -75.241  1.00  0.00    -0.390 OA
HETATM   25  H7  UNK   900      28.951 -21.275 -75.632  1.00  0.00     0.210 HD
ENDBRANCH  19  24
BRANCH  20  26
HETATM   26  O4  UNK   900      28.135 -17.266 -74.254  1.00  0.00    -0.388 OA
HETATM   27  H8  UNK   900      29.022 -17.071 -73.907  1.00  0.00     0.210 HD
ENDBRANCH  20  26
ENDBRANCH  15  16
ENDBRANCH   3  15
BRANCH  11  28
HETATM   28  O6  UNK   900      21.498 -23.208 -74.671  1.00  0.00    -0.358 OA
HETATM   29  H16 UNK   900      21.271 -22.271 -74.550  1.00  0.00     0.217 HD
ENDBRANCH  11  28
TORSDOF 7
ENDMDL
MODEL 6
REMARK VINA RESULT:      -5.8     40.554     43.207
REMARK  7 active torsions:
REMARK  status: ('A' for Active; 'I' for Inactive)
REMARK    1  A    between atoms: O2_2  and  C4_12 
REMARK    2  A    between atoms: O2_2  and  C6_14 
REMARK    3  A    between atoms: O3_3  and  C1_9 
REMARK    4  A    between atoms: O4_4  and  C2_10 
REMARK    5  A    between atoms: O5_5  and  C5_13 
REMARK    6  A    between atoms: O6_6  and  C14_22 
REMARK    7  A    between atoms: C3_11  and  C5_13 
ROOT
HETATM    1  N1  UNK   900      17.083 -63.344 -68.273  1.00  0.00    -0.241 NA
HETATM    2  N2  UNK   900      14.834 -64.625 -67.327  1.00  0.00    -0.241 NA
HETATM    3  C6  UNK   900      15.739 -62.097 -69.782  1.00  0.00     0.103 A 
HETATM    4  C7  UNK   900      15.873 -63.051 -68.777  1.00  0.00     0.119 A 
HETATM    5  C8  UNK   900      14.492 -61.778 -70.317  1.00  0.00     0.039 A 
HETATM    6  C9  UNK   900      14.732 -63.702 -68.296  1.00  0.00     0.089 A 
HETATM    7  C10 UNK   900      13.360 -62.423 -69.841  1.00  0.00     0.005 A 
HETATM    8  C11 UNK   900      13.487 -63.379 -68.835  1.00  0.00     0.034 A 
HETATM    9  C12 UNK   900      17.185 -64.268 -67.305  1.00  0.00     0.089 A 
HETATM   10  C13 UNK   900      16.044 -64.919 -66.824  1.00  0.00     0.119 A 
HETATM   11  C14 UNK   900      16.178 -65.872 -65.818  1.00  0.00     0.096 A 
HETATM   12  C15 UNK   900      18.429 -64.591 -66.767  1.00  0.00     0.034 A 
HETATM   13  C16 UNK   900      17.425 -66.191 -65.283  1.00  0.00     0.039 A 
HETATM   14  C17 UNK   900      18.557 -65.547 -65.760  1.00  0.00     0.005 A 
ENDROOT
BRANCH   3  15
HETATM   15  O2  UNK   900      16.840 -61.450 -70.267  1.00  0.00    -0.315 OA
BRANCH  15  16
HETATM   16  C4  UNK   900      17.216 -61.738 -71.610  1.00  0.00     0.298 C 
HETATM   17  O1  UNK   900      18.242 -60.834 -72.050  1.00  0.00    -0.348 OA
HETATM   18  C3  UNK   900      19.515 -61.506 -72.018  1.00  0.00     0.179 C 
HETATM   19  C1  UNK   900      19.266 -62.919 -71.491  1.00  0.00     0.182 C 
HETATM   20  C2  UNK   900      17.789 -63.141 -71.739  1.00  0.00     0.205 C 
BRANCH  18  21
HETATM   21  C5  UNK   900      20.086 -61.486 -73.429  1.00  0.00     0.198 C 
BRANCH  21  22
HETATM   22  O5  UNK   900      21.345 -60.832 -73.404  1.00  0.00    -0.398 OA
HETATM   23  H9  UNK   900      21.313 -60.125 -74.072  1.00  0.00     0.209 HD
ENDBRANCH  21  22
ENDBRANCH  18  21
BRANCH  19  24
HETATM   24  O3  UNK   900      19.496 -62.943 -70.085  1.00  0.00    -0.390 OA
HETATM   25  H7  UNK   900      19.231 -62.077 -69.731  1.00  0.00     0.210 HD
ENDBRANCH  19  24
BRANCH  20  26
HETATM   26  O4  UNK   900      17.608 -63.616 -73.067  1.00  0.00    -0.388 OA
HETATM   27  H8  UNK   900      18.488 -63.697 -73.470  1.00  0.00     0.210 HD
ENDBRANCH  20  26
ENDBRANCH  15  16
ENDBRANCH   3  15
BRANCH  11  28
HETATM   28  O6  UNK   900      15.076 -66.519 -65.333  1.00  0.00    -0.358 OA
HETATM   29  H16 UNK   900      15.332 -67.413 -65.046  1.00  0.00     0.217 HD
ENDBRANCH  11  28
TORSDOF 7
ENDMDL
MODEL 7
REMARK VINA RESULT:      -5.7     35.490     37.286
REMARK  7 active torsions:
REMARK  status: ('A' for Active; 'I' for Inactive)
REMARK    1  A    between atoms: O2_2  and  C4_12 
REMARK    2  A    between atoms: O2_2  and  C6_14 
REMARK    3  A    between atoms: O3_3  and  C1_9 
REMARK    4  A    between atoms: O4_4  and  C2_10 
REMARK    5  A    between atoms: O5_5  and  C5_13 
REMARK    6  A    between atoms: O6_6  and  C14_22 
REMARK    7  A    between atoms: C3_11  and  C5_13 
ROOT
HETATM    1  N1  UNK   900      10.391 -46.980 -96.877  1.00  0.00    -0.241 NA
HETATM    2  N2  UNK   900      13.075 -47.326 -97.393  1.00  0.00    -0.241 NA
HETATM    3  C6  UNK   900      10.537 -44.730 -97.621  1.00  0.00     0.103 A 
HETATM    4  C7  UNK   900      11.123 -45.967 -97.367  1.00  0.00     0.119 A 
HETATM    5  C8  UNK   900      11.280 -43.666 -98.130  1.00  0.00     0.039 A 
HETATM    6  C9  UNK   900      12.486 -46.143 -97.629  1.00  0.00     0.089 A 
HETATM    7  C10 UNK   900      12.631 -43.840 -98.390  1.00  0.00     0.005 A 
HETATM    8  C11 UNK   900      13.224 -45.076 -98.139  1.00  0.00     0.034 A 
HETATM    9  C12 UNK   900      10.980 -48.163 -96.641  1.00  0.00     0.089 A 
HETATM   10  C13 UNK   900      12.343 -48.339 -96.903  1.00  0.00     0.119 A 
HETATM   11  C14 UNK   900      12.930 -49.577 -96.650  1.00  0.00     0.096 A 
HETATM   12  C15 UNK   900      10.243 -49.230 -96.131  1.00  0.00     0.034 A 
HETATM   13  C16 UNK   900      12.187 -50.640 -96.140  1.00  0.00     0.039 A 
HETATM   14  C17 UNK   900      10.835 -50.466 -95.880  1.00  0.00     0.005 A 
ENDROOT
BRANCH   3  15
HETATM   15  O2  UNK   900       9.207 -44.536 -97.372  1.00  0.00    -0.315 OA
BRANCH  15  16
HETATM   16  C4  UNK   900       8.874 -43.585 -96.365  1.00  0.00     0.298 C 
HETATM   17  O1  UNK   900       7.453 -43.548 -96.160  1.00  0.00    -0.348 OA
HETATM   18  C3  UNK   900       7.126 -44.274 -94.959  1.00  0.00     0.179 C 
HETATM   19  C1  UNK   900       8.434 -44.827 -94.396  1.00  0.00     0.182 C 
HETATM   20  C2  UNK   900       9.497 -43.951 -95.027  1.00  0.00     0.205 C 
BRANCH  18  21
HETATM   21  C5  UNK   900       6.427 -43.310 -94.011  1.00  0.00     0.198 C 
BRANCH  21  22
HETATM   22  O5  UNK   900       7.039 -43.399 -92.734  1.00  0.00    -0.398 OA
HETATM   23  H9  UNK   900       6.387 -43.799 -92.132  1.00  0.00     0.209 HD
ENDBRANCH  21  22
ENDBRANCH  18  21
BRANCH  19  24
HETATM   24  O3  UNK   900       8.617 -46.162 -94.858  1.00  0.00    -0.390 OA
HETATM   25  H7  UNK   900       9.205 -46.125 -95.631  1.00  0.00     0.210 HD
ENDBRANCH  19  24
BRANCH  20  26
HETATM   26  O4  UNK   900       9.664 -42.781 -94.236  1.00  0.00    -0.388 OA
HETATM   27  H8  UNK   900       9.219 -42.051 -94.697  1.00  0.00     0.210 HD
ENDBRANCH  20  26
ENDBRANCH  15  16
ENDBRANCH   3  15
BRANCH  11  28
HETATM   28  O6  UNK   900      14.259 -49.771 -96.899  1.00  0.00    -0.358 OA
HETATM   29  H16 UNK   900      14.507 -50.670 -96.624  1.00  0.00     0.217 HD
ENDBRANCH  11  28
TORSDOF 7
ENDMDL
MODEL 8
REMARK VINA RESULT:      -5.7     26.921     29.383
REMARK  7 active torsions:
REMARK  status: ('A' for Active; 'I' for Inactive)
REMARK    1  A    between atoms: O2_2  and  C4_12 
REMARK    2  A    between atoms: O2_2  and  C6_14 
REMARK    3  A    between atoms: O3_3  and  C1_9 
REMARK    4  A    between atoms: O4_4  and  C2_10 
REMARK    5  A    between atoms: O5_5  and  C5_13 
REMARK    6  A    between atoms: O6_6  and  C14_22 
REMARK    7  A    between atoms: C3_11  and  C5_13 
ROOT
HETATM    1  N1  UNK   900      29.533 -39.694 -93.644  1.00  0.00    -0.241 NA
HETATM    2  N2  UNK   900      29.224 -36.978 -93.996  1.00  0.00    -0.241 NA
HETATM    3  C6  UNK   900      27.181 -39.933 -93.420  1.00  0.00     0.103 A 
HETATM    4  C7  UNK   900      28.309 -39.142 -93.621  1.00  0.00     0.119 A 
HETATM    5  C8  UNK   900      25.902 -39.379 -93.394  1.00  0.00     0.039 A 
HETATM    6  C9  UNK   900      28.153 -37.763 -93.800  1.00  0.00     0.089 A 
HETATM    7  C10 UNK   900      25.747 -38.012 -93.571  1.00  0.00     0.005 A 
HETATM    8  C11 UNK   900      26.872 -37.215 -93.773  1.00  0.00     0.034 A 
HETATM    9  C12 UNK   900      30.604 -38.909 -93.839  1.00  0.00     0.089 A 
HETATM   10  C13 UNK   900      30.448 -37.530 -94.018  1.00  0.00     0.119 A 
HETATM   11  C14 UNK   900      31.576 -36.739 -94.220  1.00  0.00     0.096 A 
HETATM   12  C15 UNK   900      31.885 -39.457 -93.866  1.00  0.00     0.034 A 
HETATM   13  C16 UNK   900      32.855 -37.292 -94.246  1.00  0.00     0.039 A 
HETATM   14  C17 UNK   900      33.010 -38.660 -94.068  1.00  0.00     0.005 A 
ENDROOT
BRANCH   3  15
HETATM   15  O2  UNK   900      27.311 -41.282 -93.242  1.00  0.00    -0.315 OA
BRANCH  15  16
HETATM   16  C4  UNK   900      26.303 -42.106 -93.819  1.00  0.00     0.298 C 
HETATM   17  O1  UNK   900      26.802 -42.765 -94.993  1.00  0.00    -0.348 OA
HETATM   18  C3  UNK   900      27.117 -44.134 -94.674  1.00  0.00     0.179 C 
HETATM   19  C1  UNK   900      26.819 -44.330 -93.188  1.00  0.00     0.182 C 
HETATM   20  C2  UNK   900      25.864 -43.202 -92.859  1.00  0.00     0.205 C 
BRANCH  18  21
HETATM   21  C5  UNK   900      26.273 -45.025 -95.575  1.00  0.00     0.198 C 
BRANCH  21  22
HETATM   22  O5  UNK   900      25.165 -44.278 -96.050  1.00  0.00    -0.398 OA
HETATM   23  H9  UNK   900      24.719 -43.902 -95.272  1.00  0.00     0.209 HD
ENDBRANCH  21  22
ENDBRANCH  18  21
BRANCH  19  24
HETATM   24  O3  UNK   900      28.017 -44.141 -92.440  1.00  0.00    -0.390 OA
HETATM   25  H7  UNK   900      28.316 -45.016 -92.142  1.00  0.00     0.210 HD
ENDBRANCH  19  24
BRANCH  20  26
HETATM   26  O4  UNK   900      24.538 -43.611 -93.167  1.00  0.00    -0.388 OA
HETATM   27  H8  UNK   900      24.073 -42.842 -93.536  1.00  0.00     0.210 HD
ENDBRANCH  20  26
ENDBRANCH  15  16
ENDBRANCH   3  15
BRANCH  11  28
HETATM   28  O6  UNK   900      31.447 -35.390 -94.397  1.00  0.00    -0.358 OA
HETATM   29  H16 UNK   900      31.948 -35.123 -95.187  1.00  0.00     0.217 HD
ENDBRANCH  11  28
TORSDOF 7
ENDMDL
MODEL 9
REMARK VINA RESULT:      -5.5     45.663     48.155
REMARK  7 active torsions:
REMARK  status: ('A' for Active; 'I' for Inactive)
REMARK    1  A    between atoms: O2_2  and  C4_12 
REMARK    2  A    between atoms: O2_2  and  C6_14 
REMARK    3  A    between atoms: O3_3  and  C1_9 
REMARK    4  A    between atoms: O4_4  and  C2_10 
REMARK    5  A    between atoms: O5_5  and  C5_13 
REMARK    6  A    between atoms: O6_6  and  C14_22 
REMARK    7  A    between atoms: C3_11  and  C5_13 
ROOT
HETATM    1  N1  UNK   900      11.281 -67.386 -65.251  1.00  0.00    -0.241 NA
HETATM    2  N2  UNK   900       9.477 -67.649 -63.185  1.00  0.00    -0.241 NA
HETATM    3  C6  UNK   900      13.021 -68.160 -63.832  1.00  0.00     0.103 A 
HETATM    4  C7  UNK   900      11.686 -67.828 -64.050  1.00  0.00     0.119 A 
HETATM    5  C8  UNK   900      13.461 -68.621 -62.593  1.00  0.00     0.039 A 
HETATM    6  C9  UNK   900      10.769 -67.961 -63.001  1.00  0.00     0.089 A 
HETATM    7  C10 UNK   900      12.552 -68.753 -61.553  1.00  0.00     0.005 A 
HETATM    8  C11 UNK   900      11.215 -68.423 -61.763  1.00  0.00     0.034 A 
HETATM    9  C12 UNK   900       9.989 -67.073 -65.435  1.00  0.00     0.089 A 
HETATM   10  C13 UNK   900       9.073 -67.206 -64.386  1.00  0.00     0.119 A 
HETATM   11  C14 UNK   900       7.737 -66.875 -64.603  1.00  0.00     0.096 A 
HETATM   12  C15 UNK   900       9.543 -66.610 -66.671  1.00  0.00     0.034 A 
HETATM   13  C16 UNK   900       7.297 -66.413 -65.843  1.00  0.00     0.039 A 
HETATM   14  C17 UNK   900       8.206 -66.280 -66.883  1.00  0.00     0.005 A 
ENDROOT
BRANCH   3  15
HETATM   15  O2  UNK   900      13.933 -68.037 -64.843  1.00  0.00    -0.315 OA
BRANCH  15  16
HETATM   16  C4  UNK   900      15.110 -67.287 -64.559  1.00  0.00     0.298 C 
HETATM   17  O1  UNK   900      15.977 -67.261 -65.702  1.00  0.00    -0.348 OA
HETATM   18  C3  UNK   900      15.858 -65.987 -66.363  1.00  0.00     0.179 C 
HETATM   19  C1  UNK   900      14.819 -65.175 -65.592  1.00  0.00     0.182 C 
HETATM   20  C2  UNK   900      14.780 -65.839 -64.231  1.00  0.00     0.205 C 
BRANCH  18  21
HETATM   21  C5  UNK   900      17.236 -65.339 -66.373  1.00  0.00     0.198 C 
BRANCH  21  22
HETATM   22  O5  UNK   900      17.103 -63.986 -66.777  1.00  0.00    -0.398 OA
HETATM   23  H9  UNK   900      16.403 -63.956 -67.452  1.00  0.00     0.209 HD
ENDBRANCH  21  22
ENDBRANCH  18  21
BRANCH  19  24
HETATM   24  O3  UNK   900      13.545 -65.335 -66.208  1.00  0.00    -0.390 OA
HETATM   25  H7  UNK   900      12.880 -65.359 -65.500  1.00  0.00     0.210 HD
ENDBRANCH  19  24
BRANCH  20  26
HETATM   26  O4  UNK   900      15.804 -65.284 -63.415  1.00  0.00    -0.388 OA
HETATM   27  H8  UNK   900      16.650 -65.656 -63.714  1.00  0.00     0.210 HD
ENDBRANCH  20  26
ENDBRANCH  15  16
ENDBRANCH   3  15
BRANCH  11  28
HETATM   28  O6  UNK   900       6.825 -66.998 -63.593  1.00  0.00    -0.358 OA
HETATM   29  H16 UNK   900       6.009 -66.533 -63.843  1.00  0.00     0.217 HD
ENDBRANCH  11  28
TORSDOF 7
ENDMDL
