MODEL 1
REMARK VINA RESULT:      -6.2      0.000      0.000
REMARK  5 active torsions:
REMARK  status: ('A' for Active; 'I' for Inactive)
REMARK    1  A    between atoms: O2_2  and  C3_7 
REMARK    2  A    between atoms: O4_4  and  C9_13 
REMARK    3  A    between atoms: C1_5  and  C2_6 
REMARK    4  A    between atoms: C2_6  and  C3_7 
REMARK    5  A    between atoms: C3_7  and  C6_10 
ROOT
HETATM    1  O1  UNK   900      33.285 -38.438 -55.823  1.00  0.00    -0.307 OA
HETATM    2  O3  UNK   900      31.611 -37.335 -56.973  1.00  0.00    -0.259 OA
HETATM    3  C1  UNK   900      34.696 -38.246 -55.533  1.00  0.00     0.168 A 
HETATM    4  C4  UNK   900      34.992 -36.974 -56.228  1.00  0.00    -0.010 A 
HETATM    5  C5  UNK   900      33.848 -36.498 -56.837  1.00  0.00     0.081 A 
HETATM    6  C7  UNK   900      32.759 -37.428 -56.586  1.00  0.00     0.297 A 
HETATM    7  C8  UNK   900      36.177 -36.264 -56.317  1.00  0.00     0.011 A 
HETATM    8  C9  UNK   900      33.819 -35.319 -57.558  1.00  0.00     0.082 A 
HETATM    9  C11 UNK   900      36.180 -35.067 -57.040  1.00  0.00     0.003 A 
HETATM   10  C12 UNK   900      35.008 -34.598 -57.657  1.00  0.00     0.037 A 
ENDROOT
BRANCH   3  11
HETATM   11  C2  UNK   900      35.474 -39.438 -56.062  1.00  0.00     0.069 C 
BRANCH  11  12
HETATM   12  C3  UNK   900      34.993 -40.766 -55.460  1.00  0.00     0.120 C 
BRANCH  12  13
HETATM   13  O2  UNK   900      34.259 -40.483 -54.272  1.00  0.00    -0.395 OA
HETATM   14  H12 UNK   900      34.777 -39.853 -53.743  1.00  0.00     0.210 HD
ENDBRANCH  12  13
BRANCH  12  15
HETATM   15  C6  UNK   900      36.182 -41.678 -55.133  1.00  0.00     0.027 C 
HETATM   16  C10 UNK   900      37.126 -41.072 -54.104  1.00  0.00     0.007 C 
ENDBRANCH  12  15
ENDBRANCH  11  12
ENDBRANCH   3  11
BRANCH   8  17
HETATM   17  O4  UNK   900      32.688 -34.864 -58.152  1.00  0.00    -0.360 OA
HETATM   18  H14 UNK   900      31.923 -35.355 -57.809  1.00  0.00     0.217 HD
ENDBRANCH   8  17
TORSDOF 5
ENDMDL
MODEL 2
REMARK VINA RESULT:      -5.4      2.746      5.951
REMARK  5 active torsions:
REMARK  status: ('A' for Active; 'I' for Inactive)
REMARK    1  A    between atoms: O2_2  and  C3_7 
REMARK    2  A    between atoms: O4_4  and  C9_13 
REMARK    3  A    between atoms: C1_5  and  C2_6 
REMARK    4  A    between atoms: C2_6  and  C3_7 
REMARK    5  A    between atoms: C3_7  and  C6_10 
ROOT
HETATM    1  O1  UNK   900      35.914 -35.218 -56.628  1.00  0.00    -0.307 OA
HETATM    2  O3  UNK   900      35.742 -36.932 -55.088  1.00  0.00    -0.259 OA
HETATM    3  C1  UNK   900      35.107 -34.642 -57.690  1.00  0.00     0.168 A 
HETATM    4  C4  UNK   900      33.890 -35.484 -57.655  1.00  0.00    -0.010 A 
HETATM    5  C5  UNK   900      34.008 -36.431 -56.658  1.00  0.00     0.081 A 
HETATM    6  C7  UNK   900      35.297 -36.270 -56.004  1.00  0.00     0.297 A 
HETATM    7  C8  UNK   900      32.745 -35.425 -58.430  1.00  0.00     0.011 A 
HETATM    8  C9  UNK   900      33.019 -37.358 -56.386  1.00  0.00     0.082 A 
HETATM    9  C11 UNK   900      31.726 -36.349 -58.179  1.00  0.00     0.003 A 
HETATM   10  C12 UNK   900      31.862 -37.310 -57.163  1.00  0.00     0.037 A 
ENDROOT
BRANCH   3  11
HETATM   11  C2  UNK   900      35.878 -34.721 -58.995  1.00  0.00     0.069 C 
BRANCH  11  12
HETATM   12  C3  UNK   900      35.958 -33.366 -59.713  1.00  0.00     0.120 C 
BRANCH  12  13
HETATM   13  O2  UNK   900      35.939 -33.599 -61.119  1.00  0.00    -0.395 OA
HETATM   14  H12 UNK   900      36.832 -33.869 -61.389  1.00  0.00     0.210 HD
ENDBRANCH  12  13
BRANCH  12  15
HETATM   15  C6  UNK   900      37.239 -32.618 -59.326  1.00  0.00     0.027 C 
HETATM   16  C10 UNK   900      36.980 -31.449 -58.385  1.00  0.00     0.007 C 
ENDBRANCH  12  15
ENDBRANCH  11  12
ENDBRANCH   3  11
BRANCH   8  17
HETATM   17  O4  UNK   900      33.149 -38.285 -55.404  1.00  0.00    -0.360 OA
HETATM   18  H14 UNK   900      33.366 -39.145 -55.800  1.00  0.00     0.217 HD
ENDBRANCH   8  17
TORSDOF 5
ENDMDL
MODEL 3
REMARK VINA RESULT:      -5.3     39.488     40.458
REMARK  5 active torsions:
REMARK  status: ('A' for Active; 'I' for Inactive)
REMARK    1  A    between atoms: O2_2  and  C3_7 
REMARK    2  A    between atoms: O4_4  and  C9_13 
REMARK    3  A    between atoms: C1_5  and  C2_6 
REMARK    4  A    between atoms: C2_6  and  C3_7 
REMARK    5  A    between atoms: C3_7  and  C6_10 
ROOT
HETATM    1  O1  UNK   900       7.711 -67.438 -47.677  1.00  0.00    -0.307 OA
HETATM    2  O3  UNK   900       6.171 -65.769 -48.107  1.00  0.00    -0.259 OA
HETATM    3  C1  UNK   900       8.689 -68.215 -48.419  1.00  0.00     0.168 A 
HETATM    4  C4  UNK   900       8.537 -67.687 -49.793  1.00  0.00    -0.010 A 
HETATM    5  C5  UNK   900       7.571 -66.701 -49.808  1.00  0.00     0.081 A 
HETATM    6  C7  UNK   900       7.038 -66.541 -48.465  1.00  0.00     0.297 A 
HETATM    7  C8  UNK   900       9.203 -68.030 -50.957  1.00  0.00     0.011 A 
HETATM    8  C9  UNK   900       7.216 -66.019 -50.958  1.00  0.00     0.082 A 
HETATM    9  C11 UNK   900       8.867 -67.359 -52.136  1.00  0.00     0.003 A 
HETATM   10  C12 UNK   900       7.879 -66.359 -52.137  1.00  0.00     0.037 A 
ENDROOT
BRANCH   3  11
HETATM   11  C2  UNK   900       8.356 -69.690 -48.280  1.00  0.00     0.069 C 
BRANCH  11  12
HETATM   12  C3  UNK   900       9.527 -70.504 -47.712  1.00  0.00     0.120 C 
BRANCH  12  13
HETATM   13  O2  UNK   900      10.021 -69.836 -46.554  1.00  0.00    -0.395 OA
HETATM   14  H12 UNK   900      10.842 -69.378 -46.800  1.00  0.00     0.210 HD
ENDBRANCH  12  13
BRANCH  12  15
HETATM   15  C6  UNK   900      10.648 -70.645 -48.749  1.00  0.00     0.027 C 
HETATM   16  C10 UNK   900      11.954 -70.006 -48.298  1.00  0.00     0.007 C 
ENDBRANCH  12  15
ENDBRANCH  11  12
ENDBRANCH   3  11
BRANCH   8  17
HETATM   17  O4  UNK   900       6.264 -65.053 -50.959  1.00  0.00    -0.360 OA
HETATM   18  H14 UNK   900       5.449 -65.405 -51.354  1.00  0.00     0.217 HD
ENDBRANCH   8  17
TORSDOF 5
ENDMDL
MODEL 4
REMARK VINA RESULT:      -5.3      2.215      3.284
REMARK  5 active torsions:
REMARK  status: ('A' for Active; 'I' for Inactive)
REMARK    1  A    between atoms: O2_2  and  C3_7 
REMARK    2  A    between atoms: O4_4  and  C9_13 
REMARK    3  A    between atoms: C1_5  and  C2_6 
REMARK    4  A    between atoms: C2_6  and  C3_7 
REMARK    5  A    between atoms: C3_7  and  C6_10 
ROOT
HETATM    1  O1  UNK   900      36.925 -37.950 -57.221  1.00  0.00    -0.307 OA
HETATM    2  O3  UNK   900      36.002 -36.023 -58.103  1.00  0.00    -0.259 OA
HETATM    3  C1  UNK   900      36.500 -39.059 -56.384  1.00  0.00     0.168 A 
HETATM    4  C4  UNK   900      35.088 -38.720 -56.100  1.00  0.00    -0.010 A 
HETATM    5  C5  UNK   900      34.758 -37.537 -56.732  1.00  0.00     0.081 A 
HETATM    6  C7  UNK   900      35.924 -37.040 -57.443  1.00  0.00     0.297 A 
HETATM    7  C8  UNK   900      34.142 -39.399 -55.352  1.00  0.00     0.011 A 
HETATM    8  C9  UNK   900      33.498 -36.972 -56.651  1.00  0.00     0.082 A 
HETATM    9  C11 UNK   900      32.859 -38.854 -55.251  1.00  0.00     0.003 A 
HETATM   10  C12 UNK   900      32.539 -37.647 -55.897  1.00  0.00     0.037 A 
ENDROOT
BRANCH   3  11
HETATM   11  C2  UNK   900      37.385 -39.114 -55.152  1.00  0.00     0.069 C 
BRANCH  11  12
HETATM   12  C3  UNK   900      38.134 -40.448 -55.026  1.00  0.00     0.120 C 
BRANCH  12  13
HETATM   13  O2  UNK   900      39.366 -40.342 -55.734  1.00  0.00    -0.395 OA
HETATM   14  H12 UNK   900      39.602 -39.400 -55.784  1.00  0.00     0.210 HD
ENDBRANCH  12  13
BRANCH  12  15
HETATM   15  C6  UNK   900      37.300 -41.598 -55.603  1.00  0.00     0.027 C 
HETATM   16  C10 UNK   900      36.684 -42.480 -54.526  1.00  0.00     0.007 C 
ENDBRANCH  12  15
ENDBRANCH  11  12
ENDBRANCH   3  11
BRANCH   8  17
HETATM   17  O4  UNK   900      33.187 -35.809 -57.275  1.00  0.00    -0.360 OA
HETATM   18  H14 UNK   900      32.809 -35.188 -56.630  1.00  0.00     0.217 HD
ENDBRANCH   8  17
TORSDOF 5
ENDMDL
MODEL 5
REMARK VINA RESULT:      -5.1     24.468     26.774
REMARK  5 active torsions:
REMARK  status: ('A' for Active; 'I' for Inactive)
REMARK    1  A    between atoms: O2_2  and  C3_7 
REMARK    2  A    between atoms: O4_4  and  C9_13 
REMARK    3  A    between atoms: C1_5  and  C2_6 
REMARK    4  A    between atoms: C2_6  and  C3_7 
REMARK    5  A    between atoms: C3_7  and  C6_10 
ROOT
HETATM    1  O1  UNK   900      24.111 -19.644 -73.379  1.00  0.00    -0.307 OA
HETATM    2  O3  UNK   900      22.348 -20.901 -72.571  1.00  0.00    -0.259 OA
HETATM    3  C1  UNK   900      24.927 -19.584 -74.580  1.00  0.00     0.168 A 
HETATM    4  C4  UNK   900      24.363 -20.679 -75.401  1.00  0.00    -0.010 A 
HETATM    5  C5  UNK   900      23.323 -21.282 -74.722  1.00  0.00     0.081 A 
HETATM    6  C7  UNK   900      23.161 -20.630 -73.432  1.00  0.00     0.297 A 
HETATM    7  C8  UNK   900      24.720 -21.118 -76.664  1.00  0.00     0.011 A 
HETATM    8  C9  UNK   900      22.599 -22.337 -75.246  1.00  0.00     0.082 A 
HETATM    9  C11 UNK   900      24.007 -22.183 -77.222  1.00  0.00     0.003 A 
HETATM   10  C12 UNK   900      22.953 -22.789 -76.517  1.00  0.00     0.037 A 
ENDROOT
BRANCH   3  11
HETATM   11  C2  UNK   900      26.383 -19.782 -74.198  1.00  0.00     0.069 C 
BRANCH  11  12
HETATM   12  C3  UNK   900      26.564 -20.853 -73.113  1.00  0.00     0.120 C 
BRANCH  12  13
HETATM   13  O2  UNK   900      27.347 -20.299 -72.059  1.00  0.00    -0.395 OA
HETATM   14  H12 UNK   900      26.967 -19.435 -71.826  1.00  0.00     0.210 HD
ENDBRANCH  12  13
BRANCH  12  15
HETATM   15  C6  UNK   900      27.262 -22.093 -73.683  1.00  0.00     0.027 C 
HETATM   16  C10 UNK   900      26.353 -23.314 -73.732  1.00  0.00     0.007 C 
ENDBRANCH  12  15
ENDBRANCH  11  12
ENDBRANCH   3  11
BRANCH   8  17
HETATM   17  O4  UNK   900      21.581 -22.921 -74.568  1.00  0.00    -0.360 OA
HETATM   18  H14 UNK   900      21.899 -23.739 -74.150  1.00  0.00     0.217 HD
ENDBRANCH   8  17
TORSDOF 5
ENDMDL
MODEL 6
REMARK VINA RESULT:      -4.9     24.216     26.235
REMARK  5 active torsions:
REMARK  status: ('A' for Active; 'I' for Inactive)
REMARK    1  A    between atoms: O2_2  and  C3_7 
REMARK    2  A    between atoms: O4_4  and  C9_13 
REMARK    3  A    between atoms: C1_5  and  C2_6 
REMARK    4  A    between atoms: C2_6  and  C3_7 
REMARK    5  A    between atoms: C3_7  and  C6_10 
ROOT
HETATM    1  O1  UNK   900      24.953 -20.808 -73.296  1.00  0.00    -0.307 OA
HETATM    2  O3  UNK   900      24.629 -19.707 -75.302  1.00  0.00    -0.259 OA
HETATM    3  C1  UNK   900      24.682 -22.121 -72.734  1.00  0.00     0.168 A 
HETATM    4  C4  UNK   900      24.019 -22.816 -73.860  1.00  0.00    -0.010 A 
HETATM    5  C5  UNK   900      23.941 -21.971 -74.948  1.00  0.00     0.081 A 
HETATM    6  C7  UNK   900      24.529 -20.689 -74.594  1.00  0.00     0.297 A 
HETATM    7  C8  UNK   900      23.526 -24.107 -73.941  1.00  0.00     0.011 A 
HETATM    8  C9  UNK   900      23.374 -22.350 -76.151  1.00  0.00     0.082 A 
HETATM    9  C11 UNK   900      22.946 -24.521 -75.144  1.00  0.00     0.003 A 
HETATM   10  C12 UNK   900      22.870 -23.647 -76.243  1.00  0.00     0.037 A 
ENDROOT
BRANCH   3  11
HETATM   11  C2  UNK   900      23.808 -21.959 -71.503  1.00  0.00     0.069 C 
BRANCH  11  12
HETATM   12  C3  UNK   900      24.356 -20.907 -70.529  1.00  0.00     0.120 C 
BRANCH  12  13
HETATM   13  O2  UNK   900      24.842 -21.576 -69.369  1.00  0.00    -0.395 OA
HETATM   14  H12 UNK   900      24.294 -21.303 -68.614  1.00  0.00     0.210 HD
ENDBRANCH  12  13
BRANCH  12  15
HETATM   15  C6  UNK   900      23.261 -19.908 -70.134  1.00  0.00     0.027 C 
HETATM   16  C10 UNK   900      22.459 -19.407 -71.327  1.00  0.00     0.007 C 
ENDBRANCH  12  15
ENDBRANCH  11  12
ENDBRANCH   3  11
BRANCH   8  17
HETATM   17  O4  UNK   900      23.301 -21.509 -77.212  1.00  0.00    -0.360 OA
HETATM   18  H14 UNK   900      23.288 -20.590 -76.895  1.00  0.00     0.217 HD
ENDBRANCH   8  17
TORSDOF 5
ENDMDL
MODEL 7
REMARK VINA RESULT:      -4.9     39.580     41.353
REMARK  5 active torsions:
REMARK  status: ('A' for Active; 'I' for Inactive)
REMARK    1  A    between atoms: O2_2  and  C3_7 
REMARK    2  A    between atoms: O4_4  and  C9_13 
REMARK    3  A    between atoms: C1_5  and  C2_6 
REMARK    4  A    between atoms: C2_6  and  C3_7 
REMARK    5  A    between atoms: C3_7  and  C6_10 
ROOT
HETATM    1  O1  UNK   900       6.222 -67.907 -52.284  1.00  0.00    -0.307 OA
HETATM    2  O3  UNK   900       6.289 -70.146 -51.712  1.00  0.00    -0.259 OA
HETATM    3  C1  UNK   900       6.916 -66.684 -51.919  1.00  0.00     0.168 A 
HETATM    4  C4  UNK   900       7.884 -67.158 -50.905  1.00  0.00    -0.010 A 
HETATM    5  C5  UNK   900       7.746 -68.521 -50.732  1.00  0.00     0.081 A 
HETATM    6  C7  UNK   900       6.687 -69.003 -51.604  1.00  0.00     0.297 A 
HETATM    7  C8  UNK   900       8.834 -66.455 -50.185  1.00  0.00     0.011 A 
HETATM    8  C9  UNK   900       8.525 -69.245 -49.848  1.00  0.00     0.082 A 
HETATM    9  C11 UNK   900       9.637 -67.159 -49.283  1.00  0.00     0.003 A 
HETATM   10  C12 UNK   900       9.483 -68.546 -49.115  1.00  0.00     0.037 A 
ENDROOT
BRANCH   3  11
HETATM   11  C2  UNK   900       5.905 -65.682 -51.392  1.00  0.00     0.069 C 
BRANCH  11  12
HETATM   12  C3  UNK   900       4.472 -66.001 -51.842  1.00  0.00     0.120 C 
BRANCH  12  13
HETATM   13  O2  UNK   900       3.956 -64.871 -52.539  1.00  0.00    -0.395 OA
HETATM   14  H12 UNK   900       4.103 -64.085 -51.986  1.00  0.00     0.210 HD
ENDBRANCH  12  13
BRANCH  12  15
HETATM   15  C6  UNK   900       3.580 -66.321 -50.636  1.00  0.00     0.027 C 
HETATM   16  C10 UNK   900       4.367 -66.838 -49.439  1.00  0.00     0.007 C 
ENDBRANCH  12  15
ENDBRANCH  11  12
ENDBRANCH   3  11
BRANCH   8  17
HETATM   17  O4  UNK   900       8.378 -70.584 -49.687  1.00  0.00    -0.360 OA
HETATM   18  H14 UNK   900       9.219 -70.966 -49.387  1.00  0.00     0.217 HD
ENDBRANCH   8  17
TORSDOF 5
ENDMDL
MODEL 8
REMARK VINA RESULT:      -4.8     33.388     35.044
REMARK  5 active torsions:
REMARK  status: ('A' for Active; 'I' for Inactive)
REMARK    1  A    between atoms: O2_2  and  C3_7 
REMARK    2  A    between atoms: O4_4  and  C9_13 
REMARK    3  A    between atoms: C1_5  and  C2_6 
REMARK    4  A    between atoms: C2_6  and  C3_7 
REMARK    5  A    between atoms: C3_7  and  C6_10 
ROOT
HETATM    1  O1  UNK   900      10.321 -53.452 -75.044  1.00  0.00    -0.307 OA
HETATM    2  O3  UNK   900      11.148 -54.273 -77.040  1.00  0.00    -0.259 OA
HETATM    3  C1  UNK   900       9.247 -52.578 -74.604  1.00  0.00     0.168 A 
HETATM    4  C4  UNK   900       8.611 -52.188 -75.882  1.00  0.00    -0.010 A 
HETATM    5  C5  UNK   900       9.266 -52.800 -76.933  1.00  0.00     0.081 A 
HETATM    6  C7  UNK   900      10.358 -53.602 -76.406  1.00  0.00     0.297 A 
HETATM    7  C8  UNK   900       7.525 -51.364 -76.121  1.00  0.00     0.011 A 
HETATM    8  C9  UNK   900       8.889 -52.626 -78.252  1.00  0.00     0.082 A 
HETATM    9  C11 UNK   900       7.119 -51.169 -77.444  1.00  0.00     0.003 A 
HETATM   10  C12 UNK   900       7.798 -51.795 -78.504  1.00  0.00     0.037 A 
ENDROOT
BRANCH   3  11
HETATM   11  C2  UNK   900       9.843 -51.417 -73.828  1.00  0.00     0.069 C 
BRANCH  11  12
HETATM   12  C3  UNK   900      10.478 -51.862 -72.503  1.00  0.00     0.120 C 
BRANCH  12  13
HETATM   13  O2  UNK   900       9.939 -53.132 -72.148  1.00  0.00    -0.395 OA
HETATM   14  H12 UNK   900       9.382 -53.436 -72.884  1.00  0.00     0.210 HD
ENDBRANCH  12  13
BRANCH  12  15
HETATM   15  C6  UNK   900      10.190 -50.845 -71.392  1.00  0.00     0.027 C 
HETATM   16  C10 UNK   900       9.855 -49.460 -71.930  1.00  0.00     0.007 C 
ENDBRANCH  12  15
ENDBRANCH  11  12
ENDBRANCH   3  11
BRANCH   8  17
HETATM   17  O4  UNK   900       9.542 -53.231 -79.275  1.00  0.00    -0.360 OA
HETATM   18  H14 UNK   900       9.111 -54.079 -79.475  1.00  0.00     0.217 HD
ENDBRANCH   8  17
TORSDOF 5
ENDMDL
MODEL 9
REMARK VINA RESULT:      -4.8     40.786     42.799
REMARK  5 active torsions:
REMARK  status: ('A' for Active; 'I' for Inactive)
REMARK    1  A    between atoms: O2_2  and  C3_7 
REMARK    2  A    between atoms: O4_4  and  C9_13 
REMARK    3  A    between atoms: C1_5  and  C2_6 
REMARK    4  A    between atoms: C2_6  and  C3_7 
REMARK    5  A    between atoms: C3_7  and  C6_10 
ROOT
HETATM    1  O1  UNK   900       2.795 -67.813 -51.994  1.00  0.00    -0.307 OA
HETATM    2  O3  UNK   900       3.818 -69.857 -52.334  1.00  0.00    -0.259 OA
HETATM    3  C1  UNK   900       3.196 -66.436 -51.754  1.00  0.00     0.168 A 
HETATM    4  C4  UNK   900       4.673 -66.533 -51.749  1.00  0.00    -0.010 A 
HETATM    5  C5  UNK   900       5.055 -67.841 -51.976  1.00  0.00     0.081 A 
HETATM    6  C7  UNK   900       3.863 -68.660 -52.128  1.00  0.00     0.297 A 
HETATM    7  C8  UNK   900       5.629 -65.548 -51.571  1.00  0.00     0.011 A 
HETATM    8  C9  UNK   900       6.379 -68.234 -52.033  1.00  0.00     0.082 A 
HETATM    9  C11 UNK   900       6.977 -65.914 -51.622  1.00  0.00     0.003 A 
HETATM   10  C12 UNK   900       7.350 -67.250 -51.851  1.00  0.00     0.037 A 
ENDROOT
BRANCH   3  11
HETATM   11  C2  UNK   900       2.600 -65.972 -50.437  1.00  0.00     0.069 C 
BRANCH  11  12
HETATM   12  C3  UNK   900       1.126 -65.567 -50.571  1.00  0.00     0.120 C 
BRANCH  12  13
HETATM   13  O2  UNK   900       0.776 -65.588 -51.953  1.00  0.00    -0.395 OA
HETATM   14  H12 UNK   900       1.441 -65.071 -52.438  1.00  0.00     0.210 HD
ENDBRANCH  12  13
BRANCH  12  15
HETATM   15  C6  UNK   900       0.891 -64.165 -49.997  1.00  0.00     0.027 C 
HETATM   16  C10 UNK   900      -0.538 -63.676 -50.196  1.00  0.00     0.007 C 
ENDBRANCH  12  15
ENDBRANCH  11  12
ENDBRANCH   3  11
BRANCH   8  17
HETATM   17  O4  UNK   900       6.740 -69.522 -52.255  1.00  0.00    -0.360 OA
HETATM   18  H14 UNK   900       6.974 -69.634 -53.192  1.00  0.00     0.217 HD
ENDBRANCH   8  17
TORSDOF 5
ENDMDL
