MODEL 1
REMARK VINA RESULT:      -6.1      0.000      0.000
REMARK  6 active torsions:
REMARK  status: ('A' for Active; 'I' for Inactive)
REMARK    1  A    between atoms: O1_1  and  C7_11 
REMARK    2  A    between atoms: O3_3  and  C15_19 
REMARK    3  A    between atoms: O4_4  and  C16_20 
REMARK    4  A    between atoms: C2_6  and  C12_16 
REMARK    5  A    between atoms: C12_16  and  C15_19 
REMARK    6  A    between atoms: C15_19  and  C16_20 
ROOT
HETATM    1  C1  UNK   900      31.240 -47.425 -61.808  1.00  0.00     0.010 C 
HETATM    2  C2  UNK   900      31.826 -46.709 -63.062  1.00  0.00     0.030 C 
HETATM    3  C3  UNK   900      32.362 -47.999 -60.905  1.00  0.00     0.016 C 
HETATM    4  C4  UNK   900      30.217 -48.541 -62.100  1.00  0.00     0.009 C 
HETATM    5  C5  UNK   900      31.759 -48.477 -59.576  1.00  0.00     0.046 C 
HETATM    6  C6  UNK   900      32.768 -45.540 -62.603  1.00  0.00     0.020 C 
HETATM    7  C7  UNK   900      30.661 -49.539 -59.777  1.00  0.00     0.055 C 
HETATM    8  C8  UNK   900      29.611 -49.067 -60.795  1.00  0.00     0.038 C 
HETATM    9  C9  UNK   900      33.489 -47.023 -60.696  1.00  0.00    -0.025 C 
HETATM   10  C10 UNK   900      32.604 -47.678 -63.979  1.00  0.00     0.025 C 
HETATM   11  C11 UNK   900      33.673 -45.937 -61.459  1.00  0.00    -0.025 C 
HETATM   12  C13 UNK   900      32.029 -44.260 -62.178  1.00  0.00     0.015 C 
HETATM   13  C14 UNK   900      31.249 -50.898 -60.178  1.00  0.00     0.045 C 
ENDROOT
BRANCH   2  14
HETATM   14  C12 UNK   900      30.707 -46.139 -63.902  1.00  0.00     0.166 C 
HETATM   15  O2  UNK   900      29.561 -46.058 -63.456  1.00  0.00    -0.294 OA
BRANCH  14  16
HETATM   16  C15 UNK   900      31.059 -45.681 -65.313  1.00  0.00     0.211 C 
BRANCH  16  17
HETATM   17  O3  UNK   900      30.921 -44.271 -65.399  1.00  0.00    -0.386 OA
HETATM   18  H25 UNK   900      31.511 -43.959 -66.106  1.00  0.00     0.210 HD
ENDBRANCH  16  17
BRANCH  16  19
HETATM   19  C16 UNK   900      30.172 -46.321 -66.371  1.00  0.00     0.203 C 
BRANCH  19  20
HETATM   20  O4  UNK   900      29.633 -47.544 -65.880  1.00  0.00    -0.398 OA
HETATM   21  H26 UNK   900      28.782 -47.687 -66.329  1.00  0.00     0.209 HD
ENDBRANCH  19  20
ENDBRANCH  16  19
ENDBRANCH  14  16
ENDBRANCH   2  14
BRANCH   7  22
HETATM   22  O1  UNK   900      29.986 -49.727 -58.527  1.00  0.00    -0.390 OA
HETATM   23  H22 UNK   900      30.648 -49.992 -57.867  1.00  0.00     0.210 HD
ENDBRANCH   7  22
TORSDOF 6
ENDMDL
MODEL 2
REMARK VINA RESULT:      -5.8      2.465      6.040
REMARK  6 active torsions:
REMARK  status: ('A' for Active; 'I' for Inactive)
REMARK    1  A    between atoms: O1_1  and  C7_11 
REMARK    2  A    between atoms: O3_3  and  C15_19 
REMARK    3  A    between atoms: O4_4  and  C16_20 
REMARK    4  A    between atoms: C2_6  and  C12_16 
REMARK    5  A    between atoms: C12_16  and  C15_19 
REMARK    6  A    between atoms: C15_19  and  C16_20 
ROOT
HETATM    1  C1  UNK   900      32.054 -47.810 -61.071  1.00  0.00     0.010 C 
HETATM    2  C2  UNK   900      32.000 -49.364 -60.973  1.00  0.00     0.030 C 
HETATM    3  C3  UNK   900      31.114 -47.278 -62.183  1.00  0.00     0.016 C 
HETATM    4  C4  UNK   900      33.458 -47.207 -61.276  1.00  0.00     0.009 C 
HETATM    5  C5  UNK   900      31.014 -45.748 -62.085  1.00  0.00     0.046 C 
HETATM    6  C6  UNK   900      30.529 -49.817 -60.666  1.00  0.00     0.020 C 
HETATM    7  C7  UNK   900      32.390 -45.061 -62.196  1.00  0.00     0.055 C 
HETATM    8  C8  UNK   900      33.398 -45.677 -61.214  1.00  0.00     0.038 C 
HETATM    9  C9  UNK   900      29.760 -47.935 -62.156  1.00  0.00    -0.025 C 
HETATM   10  C10 UNK   900      32.501 -50.049 -62.263  1.00  0.00     0.025 C 
HETATM   11  C11 UNK   900      29.506 -49.069 -61.490  1.00  0.00    -0.025 C 
HETATM   12  C13 UNK   900      30.117 -49.678 -59.191  1.00  0.00     0.015 C 
HETATM   13  C14 UNK   900      32.927 -45.089 -63.632  1.00  0.00     0.045 C 
ENDROOT
BRANCH   2  14
HETATM   14  C12 UNK   900      32.905 -49.844 -59.862  1.00  0.00     0.166 C 
HETATM   15  O2  UNK   900      33.168 -49.115 -58.904  1.00  0.00    -0.294 OA
BRANCH  14  16
HETATM   16  C15 UNK   900      33.475 -51.251 -59.987  1.00  0.00     0.211 C 
BRANCH  16  17
HETATM   17  O3  UNK   900      33.065 -52.026 -58.871  1.00  0.00    -0.386 OA
HETATM   18  H25 UNK   900      33.409 -52.927 -58.993  1.00  0.00     0.210 HD
ENDBRANCH  16  17
BRANCH  16  19
HETATM   19  C16 UNK   900      34.996 -51.260 -60.051  1.00  0.00     0.203 C 
BRANCH  19  20
HETATM   20  O4  UNK   900      35.425 -51.571 -61.372  1.00  0.00    -0.398 OA
HETATM   21  H26 UNK   900      36.276 -52.037 -61.299  1.00  0.00     0.209 HD
ENDBRANCH  19  20
ENDBRANCH  16  19
ENDBRANCH  14  16
ENDBRANCH   2  14
BRANCH   7  22
HETATM   22  O1  UNK   900      32.232 -43.684 -61.835  1.00  0.00    -0.390 OA
HETATM   23  H22 UNK   900      32.086 -43.642 -60.874  1.00  0.00     0.210 HD
ENDBRANCH   7  22
TORSDOF 6
ENDMDL
MODEL 3
REMARK VINA RESULT:      -5.7     32.724     35.236
REMARK  6 active torsions:
REMARK  status: ('A' for Active; 'I' for Inactive)
REMARK    1  A    between atoms: O1_1  and  C7_11 
REMARK    2  A    between atoms: O3_3  and  C15_19 
REMARK    3  A    between atoms: O4_4  and  C16_20 
REMARK    4  A    between atoms: C2_6  and  C12_16 
REMARK    5  A    between atoms: C12_16  and  C15_19 
REMARK    6  A    between atoms: C15_19  and  C16_20 
ROOT
HETATM    1  C1  UNK   900       6.621 -68.832 -50.525  1.00  0.00     0.010 C 
HETATM    2  C2  UNK   900       6.643 -67.829 -49.332  1.00  0.00     0.030 C 
HETATM    3  C3  UNK   900       5.769 -68.294 -51.704  1.00  0.00     0.016 C 
HETATM    4  C4  UNK   900       6.150 -70.259 -50.181  1.00  0.00     0.009 C 
HETATM    5  C5  UNK   900       5.969 -69.191 -52.935  1.00  0.00     0.046 C 
HETATM    6  C6  UNK   900       7.236 -66.458 -49.815  1.00  0.00     0.020 C 
HETATM    7  C7  UNK   900       5.601 -70.662 -52.657  1.00  0.00     0.055 C 
HETATM    8  C8  UNK   900       6.306 -71.182 -51.394  1.00  0.00     0.038 C 
HETATM    9  C9  UNK   900       6.053 -66.848 -52.006  1.00  0.00    -0.025 C 
HETATM   10  C10 UNK   900       5.240 -67.608 -48.727  1.00  0.00     0.025 C 
HETATM   11  C11 UNK   900       6.695 -66.031 -51.160  1.00  0.00    -0.025 C 
HETATM   12  C13 UNK   900       8.771 -66.429 -49.910  1.00  0.00     0.015 C 
HETATM   13  C14 UNK   900       4.083 -70.862 -52.566  1.00  0.00     0.045 C 
ENDROOT
BRANCH   2  14
HETATM   14  C12 UNK   900       7.504 -68.372 -48.216  1.00  0.00     0.166 C 
HETATM   15  O2  UNK   900       8.434 -69.144 -48.455  1.00  0.00    -0.294 OA
BRANCH  14  16
HETATM   16  C15 UNK   900       7.165 -67.931 -46.797  1.00  0.00     0.211 C 
BRANCH  16  17
HETATM   17  O3  UNK   900       7.938 -66.789 -46.462  1.00  0.00    -0.386 OA
HETATM   18  H25 UNK   900       7.548 -66.023 -46.916  1.00  0.00     0.210 HD
ENDBRANCH  16  17
BRANCH  16  19
HETATM   19  C16 UNK   900       7.435 -69.019 -45.768  1.00  0.00     0.203 C 
BRANCH  19  20
HETATM   20  O4  UNK   900       8.837 -69.165 -45.571  1.00  0.00    -0.398 OA
HETATM   21  H26 UNK   900       9.250 -69.214 -46.450  1.00  0.00     0.209 HD
ENDBRANCH  19  20
ENDBRANCH  16  19
ENDBRANCH  14  16
ENDBRANCH   2  14
BRANCH   7  22
HETATM   22  O1  UNK   900       6.062 -71.454 -53.758  1.00  0.00    -0.390 OA
HETATM   23  H22 UNK   900       5.288 -71.705 -54.290  1.00  0.00     0.210 HD
ENDBRANCH   7  22
TORSDOF 6
ENDMDL
MODEL 4
REMARK VINA RESULT:      -5.6     27.121     29.412
REMARK  6 active torsions:
REMARK  status: ('A' for Active; 'I' for Inactive)
REMARK    1  A    between atoms: O1_1  and  C7_11 
REMARK    2  A    between atoms: O3_3  and  C15_19 
REMARK    3  A    between atoms: O4_4  and  C16_20 
REMARK    4  A    between atoms: C2_6  and  C12_16 
REMARK    5  A    between atoms: C12_16  and  C15_19 
REMARK    6  A    between atoms: C15_19  and  C16_20 
ROOT
HETATM    1  C1  UNK   900      25.780 -21.797 -75.701  1.00  0.00     0.010 C 
HETATM    2  C2  UNK   900      25.362 -22.784 -74.569  1.00  0.00     0.030 C 
HETATM    3  C3  UNK   900      26.919 -22.385 -76.575  1.00  0.00     0.016 C 
HETATM    4  C4  UNK   900      26.190 -20.387 -75.233  1.00  0.00     0.009 C 
HETATM    5  C5  UNK   900      27.131 -21.496 -77.810  1.00  0.00     0.046 C 
HETATM    6  C6  UNK   900      24.880 -24.135 -75.206  1.00  0.00     0.020 C 
HETATM    7  C7  UNK   900      27.464 -20.039 -77.435  1.00  0.00     0.055 C 
HETATM    8  C8  UNK   900      26.440 -19.474 -76.438  1.00  0.00     0.038 C 
HETATM    9  C9  UNK   900      26.675 -23.822 -76.949  1.00  0.00    -0.025 C 
HETATM   10  C10 UNK   900      26.512 -23.055 -73.576  1.00  0.00     0.025 C 
HETATM   11  C11 UNK   900      25.776 -24.600 -76.331  1.00  0.00    -0.025 C 
HETATM   12  C13 UNK   900      23.442 -24.101 -75.752  1.00  0.00     0.015 C 
HETATM   13  C14 UNK   900      28.894 -19.901 -76.898  1.00  0.00     0.045 C 
ENDROOT
BRANCH   2  14
HETATM   14  C12 UNK   900      24.234 -22.191 -73.758  1.00  0.00     0.166 C 
HETATM   15  O2  UNK   900      23.367 -21.499 -74.295  1.00  0.00    -0.294 OA
BRANCH  14  16
HETATM   16  C15 UNK   900      24.226 -22.480 -72.262  1.00  0.00     0.211 C 
BRANCH  16  17
HETATM   17  O3  UNK   900      23.413 -23.615 -72.006  1.00  0.00    -0.386 OA
HETATM   18  H25 UNK   900      23.867 -24.162 -71.342  1.00  0.00     0.210 HD
ENDBRANCH  16  17
BRANCH  16  19
HETATM   19  C16 UNK   900      23.696 -21.310 -71.445  1.00  0.00     0.203 C 
BRANCH  19  20
HETATM   20  O4  UNK   900      22.287 -21.198 -71.613  1.00  0.00    -0.398 OA
HETATM   21  H26 UNK   900      22.121 -21.008 -72.553  1.00  0.00     0.209 HD
ENDBRANCH  19  20
ENDBRANCH  16  19
ENDBRANCH  14  16
ENDBRANCH   2  14
BRANCH   7  22
HETATM   22  O1  UNK   900      27.384 -19.242 -78.623  1.00  0.00    -0.390 OA
HETATM   23  H22 UNK   900      27.979 -19.633 -79.285  1.00  0.00     0.210 HD
ENDBRANCH   7  22
TORSDOF 6
ENDMDL
MODEL 5
REMARK VINA RESULT:      -5.5     27.320     29.039
REMARK  6 active torsions:
REMARK  status: ('A' for Active; 'I' for Inactive)
REMARK    1  A    between atoms: O1_1  and  C7_11 
REMARK    2  A    between atoms: O3_3  and  C15_19 
REMARK    3  A    between atoms: O4_4  and  C16_20 
REMARK    4  A    between atoms: C2_6  and  C12_16 
REMARK    5  A    between atoms: C12_16  and  C15_19 
REMARK    6  A    between atoms: C15_19  and  C16_20 
ROOT
HETATM    1  C1  UNK   900      24.998 -22.238 -74.414  1.00  0.00     0.010 C 
HETATM    2  C2  UNK   900      24.931 -22.314 -75.969  1.00  0.00     0.030 C 
HETATM    3  C3  UNK   900      23.713 -22.812 -73.761  1.00  0.00     0.016 C 
HETATM    4  C4  UNK   900      25.269 -20.838 -73.830  1.00  0.00     0.009 C 
HETATM    5  C5  UNK   900      23.920 -22.940 -72.245  1.00  0.00     0.046 C 
HETATM    6  C6  UNK   900      24.751 -23.809 -76.411  1.00  0.00     0.020 C 
HETATM    7  C7  UNK   900      24.280 -21.594 -71.585  1.00  0.00     0.055 C 
HETATM    8  C8  UNK   900      25.452 -20.916 -72.311  1.00  0.00     0.038 C 
HETATM    9  C9  UNK   900      23.282 -24.112 -74.384  1.00  0.00    -0.025 C 
HETATM   10  C10 UNK   900      23.786 -21.456 -76.548  1.00  0.00     0.025 C 
HETATM   11  C11 UNK   900      23.737 -24.548 -75.567  1.00  0.00    -0.025 C 
HETATM   12  C13 UNK   900      26.048 -24.636 -76.394  1.00  0.00     0.015 C 
HETATM   13  C14 UNK   900      23.067 -20.659 -71.497  1.00  0.00     0.045 C 
ENDROOT
BRANCH   2  14
HETATM   14  C12 UNK   900      26.208 -21.774 -76.568  1.00  0.00     0.166 C 
HETATM   15  O2  UNK   900      27.237 -21.696 -75.895  1.00  0.00    -0.294 OA
BRANCH  14  16
HETATM   16  C15 UNK   900      26.160 -21.328 -78.024  1.00  0.00     0.211 C 
BRANCH  16  17
HETATM   17  O3  UNK   900      26.880 -22.253 -78.825  1.00  0.00    -0.386 OA
HETATM   18  H25 UNK   900      26.531 -22.196 -79.730  1.00  0.00     0.210 HD
ENDBRANCH  16  17
BRANCH  16  19
HETATM   19  C16 UNK   900      26.756 -19.943 -78.230  1.00  0.00     0.203 C 
BRANCH  19  20
HETATM   20  O4  UNK   900      28.169 -19.992 -78.069  1.00  0.00    -0.398 OA
HETATM   21  H26 UNK   900      28.431 -20.929 -78.085  1.00  0.00     0.209 HD
ENDBRANCH  19  20
ENDBRANCH  16  19
ENDBRANCH  14  16
ENDBRANCH   2  14
BRANCH   7  22
HETATM   22  O1  UNK   900      24.705 -21.855 -70.242  1.00  0.00    -0.390 OA
HETATM   23  H22 UNK   900      24.142 -21.335 -69.643  1.00  0.00     0.210 HD
ENDBRANCH   7  22
TORSDOF 6
ENDMDL
MODEL 6
REMARK VINA RESULT:      -5.2     31.338     34.441
REMARK  6 active torsions:
REMARK  status: ('A' for Active; 'I' for Inactive)
REMARK    1  A    between atoms: O1_1  and  C7_11 
REMARK    2  A    between atoms: O3_3  and  C15_19 
REMARK    3  A    between atoms: O4_4  and  C16_20 
REMARK    4  A    between atoms: C2_6  and  C12_16 
REMARK    5  A    between atoms: C12_16  and  C15_19 
REMARK    6  A    between atoms: C15_19  and  C16_20 
ROOT
HETATM    1  C1  UNK   900       7.656 -68.910 -49.257  1.00  0.00     0.010 C 
HETATM    2  C2  UNK   900       6.609 -67.768 -49.427  1.00  0.00     0.030 C 
HETATM    3  C3  UNK   900       6.988 -70.228 -48.788  1.00  0.00     0.016 C 
HETATM    4  C4  UNK   900       8.839 -68.591 -48.321  1.00  0.00     0.009 C 
HETATM    5  C5  UNK   900       8.005 -71.377 -48.867  1.00  0.00     0.046 C 
HETATM    6  C6  UNK   900       5.529 -68.203 -50.479  1.00  0.00     0.020 C 
HETATM    7  C7  UNK   900       9.265 -71.106 -48.022  1.00  0.00     0.055 C 
HETATM    8  C8  UNK   900       9.865 -69.729 -48.348  1.00  0.00     0.038 C 
HETATM    9  C9  UNK   900       5.727 -70.537 -49.548  1.00  0.00    -0.025 C 
HETATM   10  C10 UNK   900       5.924 -67.401 -48.093  1.00  0.00     0.025 C 
HETATM   11  C11 UNK   900       5.074 -69.632 -50.290  1.00  0.00    -0.025 C 
HETATM   12  C13 UNK   900       5.975 -68.055 -51.944  1.00  0.00     0.015 C 
HETATM   13  C14 UNK   900       8.988 -71.247 -46.521  1.00  0.00     0.045 C 
ENDROOT
BRANCH   2  14
HETATM   14  C12 UNK   900       7.291 -66.510 -49.912  1.00  0.00     0.166 C 
HETATM   15  O2  UNK   900       6.756 -65.409 -49.773  1.00  0.00    -0.294 OA
BRANCH  14  16
HETATM   16  C15 UNK   900       8.652 -66.669 -50.579  1.00  0.00     0.211 C 
BRANCH  16  17
HETATM   17  O3  UNK   900       9.605 -65.861 -49.904  1.00  0.00    -0.386 OA
HETATM   18  H25 UNK   900       9.467 -64.942 -50.188  1.00  0.00     0.210 HD
ENDBRANCH  16  17
BRANCH  16  19
HETATM   19  C16 UNK   900       8.631 -66.269 -52.048  1.00  0.00     0.203 C 
BRANCH  19  20
HETATM   20  O4  UNK   900       8.426 -64.866 -52.167  1.00  0.00    -0.398 OA
HETATM   21  H26 UNK   900       7.731 -64.730 -52.834  1.00  0.00     0.209 HD
ENDBRANCH  19  20
ENDBRANCH  16  19
ENDBRANCH  14  16
ENDBRANCH   2  14
BRANCH   7  22
HETATM   22  O1  UNK   900      10.251 -72.089 -48.361  1.00  0.00    -0.390 OA
HETATM   23  H22 UNK   900      10.073 -72.885 -47.832  1.00  0.00     0.210 HD
ENDBRANCH   7  22
TORSDOF 6
ENDMDL
MODEL 7
REMARK VINA RESULT:      -5.1     27.673     29.771
REMARK  6 active torsions:
REMARK  status: ('A' for Active; 'I' for Inactive)
REMARK    1  A    between atoms: O1_1  and  C7_11 
REMARK    2  A    between atoms: O3_3  and  C15_19 
REMARK    3  A    between atoms: O4_4  and  C16_20 
REMARK    4  A    between atoms: C2_6  and  C12_16 
REMARK    5  A    between atoms: C12_16  and  C15_19 
REMARK    6  A    between atoms: C15_19  and  C16_20 
ROOT
HETATM    1  C1  UNK   900      25.277 -21.828 -75.767  1.00  0.00     0.010 C 
HETATM    2  C2  UNK   900      26.721 -21.448 -76.216  1.00  0.00     0.030 C 
HETATM    3  C3  UNK   900      25.286 -23.015 -74.771  1.00  0.00     0.016 C 
HETATM    4  C4  UNK   900      24.290 -22.144 -76.908  1.00  0.00     0.009 C 
HETATM    5  C5  UNK   900      23.883 -23.197 -74.174  1.00  0.00     0.046 C 
HETATM    6  C6  UNK   900      27.573 -21.059 -74.957  1.00  0.00     0.020 C 
HETATM    7  C7  UNK   900      22.810 -23.436 -75.255  1.00  0.00     0.055 C 
HETATM    8  C8  UNK   900      22.879 -22.361 -76.352  1.00  0.00     0.038 C 
HETATM    9  C9  UNK   900      26.338 -22.865 -73.705  1.00  0.00    -0.025 C 
HETATM   10  C10 UNK   900      27.414 -22.593 -76.985  1.00  0.00     0.025 C 
HETATM   11  C11 UNK   900      27.359 -22.002 -73.795  1.00  0.00    -0.025 C 
HETATM   12  C13 UNK   900      27.324 -19.632 -74.439  1.00  0.00     0.015 C 
HETATM   13  C14 UNK   900      22.908 -24.845 -75.854  1.00  0.00     0.045 C 
ENDROOT
BRANCH   2  14
HETATM   14  C12 UNK   900      26.675 -20.271 -77.163  1.00  0.00     0.166 C 
HETATM   15  O2  UNK   900      25.755 -19.452 -77.107  1.00  0.00    -0.294 OA
BRANCH  14  16
HETATM   16  C15 UNK   900      27.802 -20.152 -78.181  1.00  0.00     0.211 C 
BRANCH  16  17
HETATM   17  O3  UNK   900      28.695 -19.125 -77.777  1.00  0.00    -0.386 OA
HETATM   18  H25 UNK   900      29.246 -18.894 -78.544  1.00  0.00     0.210 HD
ENDBRANCH  16  17
BRANCH  16  19
HETATM   19  C16 UNK   900      27.293 -19.830 -79.579  1.00  0.00     0.203 C 
BRANCH  19  20
HETATM   20  O4  UNK   900      26.847 -18.480 -79.636  1.00  0.00    -0.398 OA
HETATM   21  H26 UNK   900      25.874 -18.495 -79.634  1.00  0.00     0.209 HD
ENDBRANCH  19  20
ENDBRANCH  16  19
ENDBRANCH  14  16
ENDBRANCH   2  14
BRANCH   7  22
HETATM   22  O1  UNK   900      21.522 -23.331 -74.638  1.00  0.00    -0.390 OA
HETATM   23  H22 UNK   900      21.627 -23.527 -73.691  1.00  0.00     0.210 HD
ENDBRANCH   7  22
TORSDOF 6
ENDMDL
MODEL 8
REMARK VINA RESULT:      -5.0     31.242     34.236
REMARK  6 active torsions:
REMARK  status: ('A' for Active; 'I' for Inactive)
REMARK    1  A    between atoms: O1_1  and  C7_11 
REMARK    2  A    between atoms: O3_3  and  C15_19 
REMARK    3  A    between atoms: O4_4  and  C16_20 
REMARK    4  A    between atoms: C2_6  and  C12_16 
REMARK    5  A    between atoms: C12_16  and  C15_19 
REMARK    6  A    between atoms: C15_19  and  C16_20 
ROOT
HETATM    1  C1  UNK   900       7.767 -68.944 -49.026  1.00  0.00     0.010 C 
HETATM    2  C2  UNK   900       7.820 -67.422 -49.357  1.00  0.00     0.030 C 
HETATM    3  C3  UNK   900       8.077 -69.212 -47.530  1.00  0.00     0.016 C 
HETATM    4  C4  UNK   900       8.675 -69.842 -49.890  1.00  0.00     0.009 C 
HETATM    5  C5  UNK   900       7.779 -70.682 -47.198  1.00  0.00     0.046 C 
HETATM    6  C6  UNK   900       6.775 -66.659 -48.468  1.00  0.00     0.020 C 
HETATM    7  C7  UNK   900       8.585 -71.658 -48.077  1.00  0.00     0.055 C 
HETATM    8  C8  UNK   900       8.430 -71.320 -49.568  1.00  0.00     0.038 C 
HETATM    9  C9  UNK   900       7.348 -68.267 -46.613  1.00  0.00    -0.025 C 
HETATM   10  C10 UNK   900       9.227 -66.825 -49.140  1.00  0.00     0.025 C 
HETATM   11  C11 UNK   900       6.780 -67.127 -47.031  1.00  0.00    -0.025 C 
HETATM   12  C13 UNK   900       5.325 -66.751 -48.974  1.00  0.00     0.015 C 
HETATM   13  C14 UNK   900      10.064 -71.704 -47.671  1.00  0.00     0.045 C 
ENDROOT
BRANCH   2  14
HETATM   14  C12 UNK   900       7.486 -67.198 -50.813  1.00  0.00     0.166 C 
HETATM   15  O2  UNK   900       6.795 -68.008 -51.434  1.00  0.00    -0.294 OA
BRANCH  14  16
HETATM   16  C15 UNK   900       8.044 -65.942 -51.470  1.00  0.00     0.211 C 
BRANCH  16  17
HETATM   17  O3  UNK   900       6.987 -65.027 -51.712  1.00  0.00    -0.386 OA
HETATM   18  H25 UNK   900       6.175 -65.406 -51.335  1.00  0.00     0.210 HD
ENDBRANCH  16  17
BRANCH  16  19
HETATM   19  C16 UNK   900       8.743 -66.235 -52.790  1.00  0.00     0.203 C 
BRANCH  19  20
HETATM   20  O4  UNK   900       9.302 -67.544 -52.764  1.00  0.00    -0.398 OA
HETATM   21  H26 UNK   900      10.217 -67.475 -53.089  1.00  0.00     0.209 HD
ENDBRANCH  19  20
ENDBRANCH  16  19
ENDBRANCH  14  16
ENDBRANCH   2  14
BRANCH   7  22
HETATM   22  O1  UNK   900       8.057 -72.975 -47.883  1.00  0.00    -0.390 OA
HETATM   23  H22 UNK   900       7.678 -73.272 -48.727  1.00  0.00     0.210 HD
ENDBRANCH   7  22
TORSDOF 6
ENDMDL
MODEL 9
REMARK VINA RESULT:      -5.0     21.026     22.680
REMARK  6 active torsions:
REMARK  status: ('A' for Active; 'I' for Inactive)
REMARK    1  A    between atoms: O1_1  and  C7_11 
REMARK    2  A    between atoms: O3_3  and  C15_19 
REMARK    3  A    between atoms: O4_4  and  C16_20 
REMARK    4  A    between atoms: C2_6  and  C12_16 
REMARK    5  A    between atoms: C12_16  and  C15_19 
REMARK    6  A    between atoms: C15_19  and  C16_20 
ROOT
HETATM    1  C1  UNK   900      20.980 -66.352 -65.782  1.00  0.00     0.010 C 
HETATM    2  C2  UNK   900      19.552 -66.186 -66.385  1.00  0.00     0.030 C 
HETATM    3  C3  UNK   900      22.055 -66.477 -66.892  1.00  0.00     0.016 C 
HETATM    4  C4  UNK   900      21.149 -67.522 -64.792  1.00  0.00     0.009 C 
HETATM    5  C5  UNK   900      23.455 -66.395 -66.265  1.00  0.00     0.046 C 
HETATM    6  C6  UNK   900      19.514 -64.903 -67.288  1.00  0.00     0.020 C 
HETATM    7  C7  UNK   900      23.684 -67.482 -65.196  1.00  0.00     0.055 C 
HETATM    8  C8  UNK   900      22.546 -67.494 -64.164  1.00  0.00     0.038 C 
HETATM    9  C9  UNK   900      21.869 -65.465 -67.991  1.00  0.00    -0.025 C 
HETATM   10  C10 UNK   900      19.118 -67.418 -67.208  1.00  0.00     0.025 C 
HETATM   11  C11 UNK   900      20.734 -64.775 -68.171  1.00  0.00    -0.025 C 
HETATM   12  C13 UNK   900      19.373 -63.583 -66.510  1.00  0.00     0.015 C 
HETATM   13  C14 UNK   900      23.877 -68.868 -65.825  1.00  0.00     0.045 C 
ENDROOT
BRANCH   2  14
HETATM   14  C12 UNK   900      18.537 -66.039 -65.276  1.00  0.00     0.166 C 
HETATM   15  O2  UNK   900      18.890 -65.750 -64.132  1.00  0.00    -0.294 OA
BRANCH  14  16
HETATM   16  C15 UNK   900      17.074 -66.271 -65.637  1.00  0.00     0.211 C 
BRANCH  16  17
HETATM   17  O3  UNK   900      16.372 -65.039 -65.572  1.00  0.00    -0.386 OA
HETATM   18  H25 UNK   900      16.887 -64.378 -66.065  1.00  0.00     0.210 HD
ENDBRANCH  16  17
BRANCH  16  19
HETATM   19  C16 UNK   900      16.395 -67.265 -64.706  1.00  0.00     0.203 C 
BRANCH  19  20
HETATM   20  O4  UNK   900      17.358 -68.166 -64.171  1.00  0.00    -0.398 OA
HETATM   21  H26 UNK   900      16.924 -69.032 -64.075  1.00  0.00     0.209 HD
ENDBRANCH  19  20
ENDBRANCH  16  19
ENDBRANCH  14  16
ENDBRANCH   2  14
BRANCH   7  22
HETATM   22  O1  UNK   900      24.892 -67.170 -64.493  1.00  0.00    -0.390 OA
HETATM   23  H22 UNK   900      24.941 -66.203 -64.398  1.00  0.00     0.210 HD
ENDBRANCH   7  22
TORSDOF 6
ENDMDL
