MODEL 1
REMARK VINA RESULT:      -6.6      0.000      0.000
REMARK  6 active torsions:
REMARK  status: ('A' for Active; 'I' for Inactive)
REMARK    1  A    between atoms: O2_2  and  C2_9 
REMARK    2  A    between atoms: O3_3  and  C8_15 
REMARK    3  A    between atoms: O6_6  and  C11_18 
REMARK    4  A    between atoms: O7_7  and  C15_22 
REMARK    5  A    between atoms: C1_8  and  C8_15 
REMARK    6  A    between atoms: C13_20  and  C15_22 
ROOT
HETATM    1  O1  UNK   900      36.901 -36.303 -58.172  1.00  0.00    -0.313 OA
HETATM    2  O4  UNK   900      33.878 -33.934 -59.526  1.00  0.00    -0.287 OA
HETATM    3  C1  UNK   900      36.511 -33.300 -60.485  1.00  0.00     0.153 C 
HETATM    4  C2  UNK   900      37.884 -33.455 -61.157  1.00  0.00     0.136 C 
HETATM    5  C3  UNK   900      38.965 -33.850 -60.153  1.00  0.00     0.039 C 
HETATM    6  C4  UNK   900      36.208 -34.418 -59.523  1.00  0.00     0.039 A 
HETATM    7  C5  UNK   900      38.601 -35.144 -59.424  1.00  0.00     0.068 C 
HETATM    8  C6  UNK   900      37.147 -35.256 -59.044  1.00  0.00     0.065 A 
HETATM    9  C7  UNK   900      34.794 -34.633 -59.111  1.00  0.00     0.197 A 
HETATM   10  C9  UNK   900      34.544 -35.735 -58.172  1.00  0.00     0.082 A 
HETATM   11  C10 UNK   900      35.616 -36.516 -57.748  1.00  0.00     0.093 A 
HETATM   12  C11 UNK   900      33.253 -36.001 -57.707  1.00  0.00     0.083 A 
HETATM   13  C12 UNK   900      35.405 -37.569 -56.858  1.00  0.00     0.047 A 
HETATM   14  C13 UNK   900      34.118 -37.837 -56.391  1.00  0.00    -0.029 A 
HETATM   15  C14 UNK   900      33.043 -37.055 -56.816  1.00  0.00     0.047 A 
ENDROOT
BRANCH   3  16
HETATM   16  C8  UNK   900      36.419 -32.022 -59.696  1.00  0.00     0.269 C 
HETATM   17  O5  UNK   900      36.734 -31.921 -58.518  1.00  0.00    -0.264 OA
BRANCH  16  18
HETATM   18  O3  UNK   900      35.937 -31.027 -60.494  1.00  0.00    -0.326 OA
HETATM   19  C16 UNK   900      35.726 -29.768 -59.847  1.00  0.00     0.213 C 
ENDBRANCH  16  18
ENDBRANCH   3  16
BRANCH   4  20
HETATM   20  O2  UNK   900      38.243 -32.248 -61.819  1.00  0.00    -0.394 OA
HETATM   21  H7  UNK   900      38.148 -31.512 -61.191  1.00  0.00     0.210 HD
ENDBRANCH   4  20
BRANCH  12  22
HETATM   22  O6  UNK   900      32.169 -35.268 -58.089  1.00  0.00    -0.360 OA
HETATM   23  H15 UNK   900      31.373 -35.820 -58.104  1.00  0.00     0.217 HD
ENDBRANCH  12  22
BRANCH  14  24
HETATM   24  C15 UNK   900      33.890 -38.962 -55.440  1.00  0.00     0.203 C 
BRANCH  24  25
HETATM   25  O7  UNK   900      32.525 -38.972 -55.038  1.00  0.00    -0.396 OA
HETATM   26  H16 UNK   900      32.382 -39.793 -54.538  1.00  0.00     0.209 HD
ENDBRANCH  24  25
ENDBRANCH  14  24
TORSDOF 6
ENDMDL
MODEL 2
REMARK VINA RESULT:      -6.3      2.551      4.741
REMARK  6 active torsions:
REMARK  status: ('A' for Active; 'I' for Inactive)
REMARK    1  A    between atoms: O2_2  and  C2_9 
REMARK    2  A    between atoms: O3_3  and  C8_15 
REMARK    3  A    between atoms: O6_6  and  C11_18 
REMARK    4  A    between atoms: O7_7  and  C15_22 
REMARK    5  A    between atoms: C1_8  and  C8_15 
REMARK    6  A    between atoms: C13_20  and  C15_22 
ROOT
HETATM    1  O1  UNK   900      34.246 -38.302 -56.594  1.00  0.00    -0.313 OA
HETATM    2  O4  UNK   900      37.612 -36.056 -56.136  1.00  0.00    -0.287 OA
HETATM    3  C1  UNK   900      35.388 -34.760 -57.415  1.00  0.00     0.153 C 
HETATM    4  C2  UNK   900      33.977 -34.203 -57.648  1.00  0.00     0.136 C 
HETATM    5  C3  UNK   900      33.089 -35.199 -58.392  1.00  0.00     0.039 C 
HETATM    6  C4  UNK   900      35.375 -36.189 -56.938  1.00  0.00     0.039 A 
HETATM    7  C5  UNK   900      32.998 -36.529 -57.645  1.00  0.00     0.068 C 
HETATM    8  C6  UNK   900      34.297 -36.990 -57.036  1.00  0.00     0.065 A 
HETATM    9  C7  UNK   900      36.602 -36.730 -56.291  1.00  0.00     0.197 A 
HETATM   10  C9  UNK   900      36.543 -38.128 -55.841  1.00  0.00     0.082 A 
HETATM   11  C10 UNK   900      35.363 -38.845 -56.017  1.00  0.00     0.093 A 
HETATM   12  C11 UNK   900      37.652 -38.734 -55.244  1.00  0.00     0.083 A 
HETATM   13  C12 UNK   900      35.282 -40.172 -55.598  1.00  0.00     0.047 A 
HETATM   14  C13 UNK   900      36.387 -40.782 -55.002  1.00  0.00    -0.029 A 
HETATM   15  C14 UNK   900      37.570 -40.063 -54.825  1.00  0.00     0.047 A 
ENDROOT
BRANCH   3  16
HETATM   16  C8  UNK   900      36.211 -34.740 -58.674  1.00  0.00     0.269 C 
HETATM   17  O5  UNK   900      36.350 -35.702 -59.417  1.00  0.00    -0.264 OA
BRANCH  16  18
HETATM   18  O3  UNK   900      36.758 -33.502 -58.841  1.00  0.00    -0.326 OA
HETATM   19  C16 UNK   900      37.996 -33.281 -58.159  1.00  0.00     0.213 C 
ENDBRANCH  16  18
ENDBRANCH   3  16
BRANCH   4  20
HETATM   20  O2  UNK   900      34.048 -32.975 -58.363  1.00  0.00    -0.394 OA
HETATM   21  H7  UNK   900      34.921 -32.576 -58.204  1.00  0.00     0.210 HD
ENDBRANCH   4  20
BRANCH  12  22
HETATM   22  O6  UNK   900      38.831 -38.079 -55.047  1.00  0.00    -0.360 OA
HETATM   23  H15 UNK   900      38.833 -37.232 -55.517  1.00  0.00     0.217 HD
ENDBRANCH  12  22
BRANCH  14  24
HETATM   24  C15 UNK   900      36.303 -42.200 -54.552  1.00  0.00     0.203 C 
BRANCH  24  25
HETATM   25  O7  UNK   900      37.320 -42.961 -55.193  1.00  0.00    -0.396 OA
HETATM   26  H16 UNK   900      37.912 -42.328 -55.636  1.00  0.00     0.209 HD
ENDBRANCH  24  25
ENDBRANCH  14  24
TORSDOF 6
ENDMDL
MODEL 3
REMARK VINA RESULT:      -6.1      2.354      6.507
REMARK  6 active torsions:
REMARK  status: ('A' for Active; 'I' for Inactive)
REMARK    1  A    between atoms: O2_2  and  C2_9 
REMARK    2  A    between atoms: O3_3  and  C8_15 
REMARK    3  A    between atoms: O6_6  and  C11_18 
REMARK    4  A    between atoms: O7_7  and  C15_22 
REMARK    5  A    between atoms: C1_8  and  C8_15 
REMARK    6  A    between atoms: C13_20  and  C15_22 
ROOT
HETATM    1  O1  UNK   900      37.936 -34.894 -57.415  1.00  0.00    -0.313 OA
HETATM    2  O4  UNK   900      34.185 -36.109 -56.397  1.00  0.00    -0.287 OA
HETATM    3  C1  UNK   900      36.346 -37.772 -55.488  1.00  0.00     0.153 C 
HETATM    4  C2  UNK   900      37.640 -38.208 -54.786  1.00  0.00     0.136 C 
HETATM    5  C3  UNK   900      38.846 -38.134 -55.720  1.00  0.00     0.039 C 
HETATM    6  C4  UNK   900      36.527 -36.524 -56.312  1.00  0.00     0.039 A 
HETATM    7  C5  UNK   900      39.022 -36.728 -56.292  1.00  0.00     0.068 C 
HETATM    8  C6  UNK   900      37.733 -36.045 -56.673  1.00  0.00     0.065 A 
HETATM    9  C7  UNK   900      35.315 -35.759 -56.712  1.00  0.00     0.197 A 
HETATM   10  C9  UNK   900      35.539 -34.547 -57.514  1.00  0.00     0.082 A 
HETATM   11  C10 UNK   900      36.844 -34.177 -57.826  1.00  0.00     0.093 A 
HETATM   12  C11 UNK   900      34.463 -33.775 -57.960  1.00  0.00     0.083 A 
HETATM   13  C12 UNK   900      37.084 -33.031 -58.585  1.00  0.00     0.047 A 
HETATM   14  C13 UNK   900      36.012 -32.257 -59.032  1.00  0.00    -0.029 A 
HETATM   15  C14 UNK   900      34.703 -32.628 -58.720  1.00  0.00     0.047 A 
ENDROOT
BRANCH   3  16
HETATM   16  C8  UNK   900      35.838 -38.831 -56.428  1.00  0.00     0.269 C 
HETATM   17  O5  UNK   900      36.228 -38.970 -57.580  1.00  0.00    -0.264 OA
BRANCH  16  18
HETATM   18  O3  UNK   900      34.895 -39.587 -55.796  1.00  0.00    -0.326 OA
HETATM   19  C16 UNK   900      34.985 -40.997 -56.023  1.00  0.00     0.213 C 
ENDBRANCH  16  18
ENDBRANCH   3  16
BRANCH   4  20
HETATM   20  O2  UNK   900      37.495 -39.526 -54.270  1.00  0.00    -0.394 OA
HETATM   21  H7  UNK   900      37.213 -39.464 -53.341  1.00  0.00     0.210 HD
ENDBRANCH   4  20
BRANCH  12  22
HETATM   22  O6  UNK   900      33.166 -34.092 -57.684  1.00  0.00    -0.360 OA
HETATM   23  H15 UNK   900      32.567 -33.426 -58.053  1.00  0.00     0.217 HD
ENDBRANCH  12  22
BRANCH  14  24
HETATM   24  C15 UNK   900      36.265 -31.032 -59.843  1.00  0.00     0.203 C 
BRANCH  24  25
HETATM   25  O7  UNK   900      36.494 -31.400 -61.198  1.00  0.00    -0.396 OA
HETATM   26  H16 UNK   900      36.750 -32.339 -61.198  1.00  0.00     0.209 HD
ENDBRANCH  24  25
ENDBRANCH  14  24
TORSDOF 6
ENDMDL
MODEL 4
REMARK VINA RESULT:      -6.0      2.171      4.322
REMARK  6 active torsions:
REMARK  status: ('A' for Active; 'I' for Inactive)
REMARK    1  A    between atoms: O2_2  and  C2_9 
REMARK    2  A    between atoms: O3_3  and  C8_15 
REMARK    3  A    between atoms: O6_6  and  C11_18 
REMARK    4  A    between atoms: O7_7  and  C15_22 
REMARK    5  A    between atoms: C1_8  and  C8_15 
REMARK    6  A    between atoms: C13_20  and  C15_22 
ROOT
HETATM    1  O1  UNK   900      34.011 -31.981 -58.818  1.00  0.00    -0.313 OA
HETATM    2  O4  UNK   900      37.980 -32.501 -58.063  1.00  0.00    -0.287 OA
HETATM    3  C1  UNK   900      37.194 -29.890 -58.972  1.00  0.00     0.153 C 
HETATM    4  C2  UNK   900      36.474 -28.535 -59.034  1.00  0.00     0.136 C 
HETATM    5  C3  UNK   900      35.233 -28.592 -59.923  1.00  0.00     0.039 C 
HETATM    6  C4  UNK   900      36.242 -31.043 -58.785  1.00  0.00     0.039 A 
HETATM    7  C5  UNK   900      34.258 -29.670 -59.449  1.00  0.00     0.068 C 
HETATM    8  C6  UNK   900      34.915 -30.947 -58.995  1.00  0.00     0.065 A 
HETATM    9  C7  UNK   900      36.790 -32.341 -58.307  1.00  0.00     0.197 A 
HETATM   10  C9  UNK   900      35.826 -33.438 -58.138  1.00  0.00     0.082 A 
HETATM   11  C10 UNK   900      34.480 -33.200 -58.405  1.00  0.00     0.093 A 
HETATM   12  C11 UNK   900      36.246 -34.702 -57.717  1.00  0.00     0.083 A 
HETATM   13  C12 UNK   900      33.546 -34.223 -58.252  1.00  0.00     0.047 A 
HETATM   14  C13 UNK   900      33.962 -35.488 -57.832  1.00  0.00    -0.029 A 
HETATM   15  C14 UNK   900      35.310 -35.727 -57.565  1.00  0.00     0.047 A 
ENDROOT
BRANCH   3  16
HETATM   16  C8  UNK   900      37.961 -30.172 -60.235  1.00  0.00     0.269 C 
HETATM   17  O5  UNK   900      37.469 -30.671 -61.238  1.00  0.00    -0.264 OA
BRANCH  16  18
HETATM   18  O3  UNK   900      39.259 -29.788 -60.074  1.00  0.00    -0.326 OA
HETATM   19  C16 UNK   900      40.235 -30.810 -60.303  1.00  0.00     0.213 C 
ENDBRANCH  16  18
ENDBRANCH   3  16
BRANCH   4  20
HETATM   20  O2  UNK   900      37.367 -27.528 -59.496  1.00  0.00    -0.394 OA
HETATM   21  H7  UNK   900      38.269 -27.768 -59.224  1.00  0.00     0.210 HD
ENDBRANCH   4  20
BRANCH  12  22
HETATM   22  O6  UNK   900      37.550 -34.990 -57.443  1.00  0.00    -0.360 OA
HETATM   23  H15 UNK   900      38.117 -34.750 -58.191  1.00  0.00     0.217 HD
ENDBRANCH  12  22
BRANCH  14  24
HETATM   24  C15 UNK   900      32.964 -36.583 -57.667  1.00  0.00     0.203 C 
BRANCH  24  25
HETATM   25  O7  UNK   900      32.589 -37.078 -58.947  1.00  0.00    -0.396 OA
HETATM   26  H16 UNK   900      31.619 -37.148 -58.952  1.00  0.00     0.209 HD
ENDBRANCH  24  25
ENDBRANCH  14  24
TORSDOF 6
ENDMDL
MODEL 5
REMARK VINA RESULT:      -5.9     13.881     16.959
REMARK  6 active torsions:
REMARK  status: ('A' for Active; 'I' for Inactive)
REMARK    1  A    between atoms: O2_2  and  C2_9 
REMARK    2  A    between atoms: O3_3  and  C8_15 
REMARK    3  A    between atoms: O6_6  and  C11_18 
REMARK    4  A    between atoms: O7_7  and  C15_22 
REMARK    5  A    between atoms: C1_8  and  C8_15 
REMARK    6  A    between atoms: C13_20  and  C15_22 
ROOT
HETATM    1  O1  UNK   900      25.222 -30.105 -50.601  1.00  0.00    -0.313 OA
HETATM    2  O4  UNK   900      21.545 -28.832 -49.400  1.00  0.00    -0.287 OA
HETATM    3  C1  UNK   900      22.454 -31.317 -48.279  1.00  0.00     0.153 C 
HETATM    4  C2  UNK   900      23.329 -32.332 -47.529  1.00  0.00     0.136 C 
HETATM    5  C3  UNK   900      24.280 -33.067 -48.472  1.00  0.00     0.039 C 
HETATM    6  C4  UNK   900      23.239 -30.499 -49.271  1.00  0.00     0.039 A 
HETATM    7  C5  UNK   900      25.171 -32.089 -49.237  1.00  0.00     0.068 C 
HETATM    8  C6  UNK   900      24.468 -30.840 -49.703  1.00  0.00     0.065 A 
HETATM    9  C7  UNK   900      22.643 -29.228 -49.768  1.00  0.00     0.197 A 
HETATM   10  C9  UNK   900      23.444 -28.462 -50.734  1.00  0.00     0.082 A 
HETATM   11  C10 UNK   900      24.697 -28.943 -51.103  1.00  0.00     0.093 A 
HETATM   12  C11 UNK   900      22.960 -27.270 -51.278  1.00  0.00     0.083 A 
HETATM   13  C12 UNK   900      25.476 -28.234 -52.017  1.00  0.00     0.047 A 
HETATM   14  C13 UNK   900      24.997 -27.043 -52.562  1.00  0.00    -0.029 A 
HETATM   15  C14 UNK   900      23.740 -26.561 -52.193  1.00  0.00     0.047 A 
ENDROOT
BRANCH   3  16
HETATM   16  C8  UNK   900      21.358 -31.992 -49.057  1.00  0.00     0.269 C 
HETATM   17  O5  UNK   900      21.552 -32.729 -50.014  1.00  0.00    -0.264 OA
BRANCH  16  18
HETATM   18  O3  UNK   900      20.148 -31.652 -48.528  1.00  0.00    -0.326 OA
HETATM   19  C16 UNK   900      19.329 -32.749 -48.111  1.00  0.00     0.213 C 
ENDBRANCH  16  18
ENDBRANCH   3  16
BRANCH   4  20
HETATM   20  O2  UNK   900      22.509 -33.263 -46.832  1.00  0.00    -0.394 OA
HETATM   21  H7  UNK   900      22.656 -33.148 -45.877  1.00  0.00     0.210 HD
ENDBRANCH   4  20
BRANCH  12  22
HETATM   22  O6  UNK   900      21.740 -26.754 -50.953  1.00  0.00    -0.360 OA
HETATM   23  H15 UNK   900      21.145 -27.455 -50.647  1.00  0.00     0.217 HD
ENDBRANCH  12  22
BRANCH  14  24
HETATM   24  C15 UNK   900      25.828 -26.283 -53.539  1.00  0.00     0.203 C 
BRANCH  24  25
HETATM   25  O7  UNK   900      26.085 -27.098 -54.676  1.00  0.00    -0.396 OA
HETATM   26  H16 UNK   900      26.418 -26.512 -55.377  1.00  0.00     0.209 HD
ENDBRANCH  24  25
ENDBRANCH  14  24
TORSDOF 6
ENDMDL
MODEL 6
REMARK VINA RESULT:      -5.9     21.640     22.853
REMARK  6 active torsions:
REMARK  status: ('A' for Active; 'I' for Inactive)
REMARK    1  A    between atoms: O2_2  and  C2_9 
REMARK    2  A    between atoms: O3_3  and  C8_15 
REMARK    3  A    between atoms: O6_6  and  C11_18 
REMARK    4  A    between atoms: O7_7  and  C15_22 
REMARK    5  A    between atoms: C1_8  and  C8_15 
REMARK    6  A    between atoms: C13_20  and  C15_22 
ROOT
HETATM    1  O1  UNK   900      26.822 -20.359 -74.071  1.00  0.00    -0.313 OA
HETATM    2  O4  UNK   900      24.525 -23.455 -72.757  1.00  0.00    -0.287 OA
HETATM    3  C1  UNK   900      25.795 -23.814 -75.310  1.00  0.00     0.153 C 
HETATM    4  C2  UNK   900      26.892 -23.917 -76.378  1.00  0.00     0.136 C 
HETATM    5  C3  UNK   900      27.112 -22.587 -77.097  1.00  0.00     0.039 C 
HETATM    6  C4  UNK   900      25.919 -22.569 -74.470  1.00  0.00     0.039 A 
HETATM    7  C5  UNK   900      27.459 -21.473 -76.110  1.00  0.00     0.068 C 
HETATM    8  C6  UNK   900      26.673 -21.511 -74.825  1.00  0.00     0.065 A 
HETATM    9  C7  UNK   900      25.205 -22.522 -73.165  1.00  0.00     0.197 A 
HETATM   10  C9  UNK   900      25.355 -21.288 -72.380  1.00  0.00     0.082 A 
HETATM   11  C10 UNK   900      26.158 -20.266 -72.877  1.00  0.00     0.093 A 
HETATM   12  C11 UNK   900      24.703 -21.138 -71.153  1.00  0.00     0.083 A 
HETATM   13  C12 UNK   900      26.318 -19.087 -72.150  1.00  0.00     0.047 A 
HETATM   14  C13 UNK   900      25.669 -18.932 -70.924  1.00  0.00    -0.029 A 
HETATM   15  C14 UNK   900      24.863 -19.957 -70.426  1.00  0.00     0.047 A 
ENDROOT
BRANCH   3  16
HETATM   16  C8  UNK   900      24.421 -23.778 -75.923  1.00  0.00     0.269 C 
HETATM   17  O5  UNK   900      23.952 -22.803 -76.495  1.00  0.00    -0.264 OA
BRANCH  16  18
HETATM   18  O3  UNK   900      23.808 -24.982 -75.737  1.00  0.00    -0.326 OA
HETATM   19  C16 UNK   900      22.961 -25.411 -76.808  1.00  0.00     0.213 C 
ENDBRANCH  16  18
ENDBRANCH   3  16
BRANCH   4  20
HETATM   20  O2  UNK   900      26.567 -24.937 -77.316  1.00  0.00    -0.394 OA
HETATM   21  H7  UNK   900      26.802 -25.798 -76.929  1.00  0.00     0.210 HD
ENDBRANCH   4  20
BRANCH  12  22
HETATM   22  O6  UNK   900      23.905 -22.106 -70.620  1.00  0.00    -0.360 OA
HETATM   23  H15 UNK   900      23.112 -22.231 -71.163  1.00  0.00     0.217 HD
ENDBRANCH  12  22
BRANCH  14  24
HETATM   24  C15 UNK   900      25.838 -17.673 -70.145  1.00  0.00     0.203 C 
BRANCH  24  25
HETATM   25  O7  UNK   900      25.650 -17.944 -68.761  1.00  0.00    -0.396 OA
HETATM   26  H16 UNK   900      25.266 -18.835 -68.695  1.00  0.00     0.209 HD
ENDBRANCH  24  25
ENDBRANCH  14  24
TORSDOF 6
ENDMDL
MODEL 7
REMARK VINA RESULT:      -5.8     41.272     42.534
REMARK  6 active torsions:
REMARK  status: ('A' for Active; 'I' for Inactive)
REMARK    1  A    between atoms: O2_2  and  C2_9 
REMARK    2  A    between atoms: O3_3  and  C8_15 
REMARK    3  A    between atoms: O6_6  and  C11_18 
REMARK    4  A    between atoms: O7_7  and  C15_22 
REMARK    5  A    between atoms: C1_8  and  C8_15 
REMARK    6  A    between atoms: C13_20  and  C15_22 
ROOT
HETATM    1  O1  UNK   900      -0.966 -52.451 -49.707  1.00  0.00    -0.313 OA
HETATM    2  O4  UNK   900       0.170 -56.362 -49.641  1.00  0.00    -0.287 OA
HETATM    3  C1  UNK   900      -0.924 -55.401 -52.119  1.00  0.00     0.153 C 
HETATM    4  C2  UNK   900      -1.113 -54.555 -53.387  1.00  0.00     0.136 C 
HETATM    5  C3  UNK   900      -2.108 -53.417 -53.166  1.00  0.00     0.039 C 
HETATM    6  C4  UNK   900      -0.772 -54.560 -50.879  1.00  0.00     0.039 A 
HETATM    7  C5  UNK   900      -1.676 -52.518 -52.008  1.00  0.00     0.068 C 
HETATM    8  C6  UNK   900      -1.106 -53.257 -50.825  1.00  0.00     0.065 A 
HETATM    9  C7  UNK   900      -0.188 -55.191 -49.664  1.00  0.00     0.197 A 
HETATM   10  C9  UNK   900      -0.058 -54.333 -48.477  1.00  0.00     0.082 A 
HETATM   11  C10 UNK   900      -0.457 -53.002 -48.561  1.00  0.00     0.093 A 
HETATM   12  C11 UNK   900       0.456 -54.840 -47.281  1.00  0.00     0.083 A 
HETATM   13  C12 UNK   900      -0.343 -52.167 -47.450  1.00  0.00     0.047 A 
HETATM   14  C13 UNK   900       0.170 -52.669 -46.253  1.00  0.00    -0.029 A 
HETATM   15  C14 UNK   900       0.569 -54.003 -46.169  1.00  0.00     0.047 A 
ENDROOT
BRANCH   3  16
HETATM   16  C8  UNK   900      -2.098 -56.310 -51.876  1.00  0.00     0.269 C 
HETATM   17  O5  UNK   900      -2.204 -57.434 -52.349  1.00  0.00    -0.264 OA
BRANCH  16  18
HETATM   18  O3  UNK   900      -2.996 -55.685 -51.063  1.00  0.00    -0.326 OA
HETATM   19  C16 UNK   900      -4.369 -55.822 -51.444  1.00  0.00     0.213 C 
ENDBRANCH  16  18
ENDBRANCH   3  16
BRANCH   4  20
HETATM   20  O2  UNK   900      -1.537 -55.379 -54.466  1.00  0.00    -0.394 OA
HETATM   21  H7  UNK   900      -2.282 -54.942 -54.913  1.00  0.00     0.210 HD
ENDBRANCH   4  20
BRANCH  12  22
HETATM   22  O6  UNK   900       0.861 -56.134 -47.144  1.00  0.00    -0.360 OA
HETATM   23  H15 UNK   900       0.445 -56.694 -47.816  1.00  0.00     0.217 HD
ENDBRANCH  12  22
BRANCH  14  24
HETATM   24  C15 UNK   900       0.293 -51.779 -45.063  1.00  0.00     0.203 C 
BRANCH  24  25
HETATM   25  O7  UNK   900       1.653 -51.731 -44.647  1.00  0.00    -0.396 OA
HETATM   26  H16 UNK   900       1.670 -51.285 -43.783  1.00  0.00     0.209 HD
ENDBRANCH  24  25
ENDBRANCH  14  24
TORSDOF 6
ENDMDL
MODEL 8
REMARK VINA RESULT:      -5.7     13.843     16.974
REMARK  6 active torsions:
REMARK  status: ('A' for Active; 'I' for Inactive)
REMARK    1  A    between atoms: O2_2  and  C2_9 
REMARK    2  A    between atoms: O3_3  and  C8_15 
REMARK    3  A    between atoms: O6_6  and  C11_18 
REMARK    4  A    between atoms: O7_7  and  C15_22 
REMARK    5  A    between atoms: C1_8  and  C8_15 
REMARK    6  A    between atoms: C13_20  and  C15_22 
ROOT
HETATM    1  O1  UNK   900      22.201 -27.541 -51.064  1.00  0.00    -0.313 OA
HETATM    2  O4  UNK   900      25.283 -30.199 -50.901  1.00  0.00    -0.287 OA
HETATM    3  C1  UNK   900      22.892 -30.943 -49.492  1.00  0.00     0.153 C 
HETATM    4  C2  UNK   900      21.418 -31.277 -49.216  1.00  0.00     0.136 C 
HETATM    5  C3  UNK   900      20.640 -30.055 -48.731  1.00  0.00     0.039 C 
HETATM    6  C4  UNK   900      23.061 -29.651 -50.248  1.00  0.00     0.039 A 
HETATM    7  C5  UNK   900      20.727 -28.906 -49.735  1.00  0.00     0.068 C 
HETATM    8  C6  UNK   900      22.085 -28.730 -50.364  1.00  0.00     0.065 A 
HETATM    9  C7  UNK   900      24.358 -29.398 -50.933  1.00  0.00     0.197 A 
HETATM   10  C9  UNK   900      24.478 -28.125 -51.659  1.00  0.00     0.082 A 
HETATM   11  C10 UNK   900      23.389 -27.258 -51.686  1.00  0.00     0.093 A 
HETATM   12  C11 UNK   900      25.664 -27.784 -52.314  1.00  0.00     0.083 A 
HETATM   13  C12 UNK   900      23.477 -26.045 -52.369  1.00  0.00     0.047 A 
HETATM   14  C13 UNK   900      24.660 -25.701 -53.023  1.00  0.00    -0.029 A 
HETATM   15  C14 UNK   900      25.752 -26.570 -52.997  1.00  0.00     0.047 A 
ENDROOT
BRANCH   3  16
HETATM   16  C8  UNK   900      23.677 -30.796 -48.217  1.00  0.00     0.269 C 
HETATM   17  O5  UNK   900      23.898 -29.725 -47.668  1.00  0.00    -0.264 OA
BRANCH  16  18
HETATM   18  O3  UNK   900      24.090 -32.024 -47.792  1.00  0.00    -0.326 OA
HETATM   19  C16 UNK   900      24.863 -32.773 -48.736  1.00  0.00     0.213 C 
ENDBRANCH  16  18
ENDBRANCH   3  16
BRANCH   4  20
HETATM   20  O2  UNK   900      21.326 -32.331 -48.265  1.00  0.00    -0.394 OA
HETATM   21  H7  UNK   900      21.485 -31.961 -47.379  1.00  0.00     0.210 HD
ENDBRANCH   4  20
BRANCH  12  22
HETATM   22  O6  UNK   900      26.760 -28.595 -52.319  1.00  0.00    -0.360 OA
HETATM   23  H15 UNK   900      27.073 -28.752 -51.416  1.00  0.00     0.217 HD
ENDBRANCH  12  22
BRANCH  14  24
HETATM   24  C15 UNK   900      24.758 -24.406 -53.754  1.00  0.00     0.203 C 
BRANCH  24  25
HETATM   25  O7  UNK   900      24.596 -24.636 -55.149  1.00  0.00    -0.396 OA
HETATM   26  H16 UNK   900      24.525 -25.598 -55.272  1.00  0.00     0.209 HD
ENDBRANCH  24  25
ENDBRANCH  14  24
TORSDOF 6
ENDMDL
MODEL 9
REMARK VINA RESULT:      -5.7     30.869     33.070
REMARK  6 active torsions:
REMARK  status: ('A' for Active; 'I' for Inactive)
REMARK    1  A    between atoms: O2_2  and  C2_9 
REMARK    2  A    between atoms: O3_3  and  C8_15 
REMARK    3  A    between atoms: O6_6  and  C11_18 
REMARK    4  A    between atoms: O7_7  and  C15_22 
REMARK    5  A    between atoms: C1_8  and  C8_15 
REMARK    6  A    between atoms: C13_20  and  C15_22 
ROOT
HETATM    1  O1  UNK   900      25.199 -57.778 -37.538  1.00  0.00    -0.313 OA
HETATM    2  O4  UNK   900      28.354 -60.329 -37.893  1.00  0.00    -0.287 OA
HETATM    3  C1  UNK   900      28.984 -57.636 -37.112  1.00  0.00     0.153 C 
HETATM    4  C2  UNK   900      28.991 -56.325 -36.312  1.00  0.00     0.136 C 
HETATM    5  C3  UNK   900      27.976 -55.322 -36.859  1.00  0.00     0.039 C 
HETATM    6  C4  UNK   900      27.590 -58.129 -37.404  1.00  0.00     0.039 A 
HETATM    7  C5  UNK   900      26.564 -55.909 -36.870  1.00  0.00     0.068 C 
HETATM    8  C6  UNK   900      26.494 -57.354 -37.292  1.00  0.00     0.065 A 
HETATM    9  C7  UNK   900      27.412 -59.553 -37.799  1.00  0.00     0.197 A 
HETATM   10  C9  UNK   900      26.035 -59.990 -38.074  1.00  0.00     0.082 A 
HETATM   11  C10 UNK   900      24.996 -59.075 -37.930  1.00  0.00     0.093 A 
HETATM   12  C11 UNK   900      25.768 -61.301 -38.475  1.00  0.00     0.083 A 
HETATM   13  C12 UNK   900      23.681 -59.465 -38.184  1.00  0.00     0.047 A 
HETATM   14  C13 UNK   900      23.410 -60.773 -38.585  1.00  0.00    -0.029 A 
HETATM   15  C14 UNK   900      24.452 -61.690 -38.730  1.00  0.00     0.047 A 
ENDROOT
BRANCH   3  16
HETATM   16  C8  UNK   900      29.668 -57.482 -38.442  1.00  0.00     0.269 C 
HETATM   17  O5  UNK   900      29.079 -57.293 -39.498  1.00  0.00    -0.264 OA
BRANCH  16  18
HETATM   18  O3  UNK   900      31.018 -57.585 -38.275  1.00  0.00    -0.326 OA
HETATM   19  C16 UNK   900      31.490 -58.875 -37.873  1.00  0.00     0.213 C 
ENDBRANCH  16  18
ENDBRANCH   3  16
BRANCH   4  20
HETATM   20  O2  UNK   900      30.296 -55.758 -36.315  1.00  0.00    -0.394 OA
HETATM   21  H7  UNK   900      30.462 -55.364 -35.442  1.00  0.00     0.210 HD
ENDBRANCH   4  20
BRANCH  12  22
HETATM   22  O6  UNK   900      26.747 -62.236 -38.633  1.00  0.00    -0.360 OA
HETATM   23  H15 UNK   900      26.752 -62.575 -39.541  1.00  0.00     0.217 HD
ENDBRANCH  12  22
BRANCH  14  24
HETATM   24  C15 UNK   900      22.005 -61.193 -38.857  1.00  0.00     0.203 C 
BRANCH  24  25
HETATM   25  O7  UNK   900      21.401 -60.269 -39.754  1.00  0.00    -0.396 OA
HETATM   26  H16 UNK   900      22.097 -59.652 -40.039  1.00  0.00     0.209 HD
ENDBRANCH  24  25
ENDBRANCH  14  24
TORSDOF 6
ENDMDL
