MODEL 1
REMARK VINA RESULT:      -7.0      0.000      0.000
REMARK  2 active torsions:
REMARK  status: ('A' for Active; 'I' for Inactive)
REMARK    1  A    between atoms: O4_4  and  C14_19 
REMARK    2  A    between atoms: C15_20  and  C18_23 
ROOT
HETATM    1  O1  UNK   900       7.360 -68.966 -51.298  1.00  0.00    -0.348 OA
HETATM    2  O2  UNK   900       6.779 -67.502 -49.478  1.00  0.00    -0.312 OA
HETATM    3  O3  UNK   900       9.441 -69.476 -47.922  1.00  0.00    -0.297 OA
HETATM    4  C1  UNK   900       7.725 -67.793 -50.535  1.00  0.00     0.184 C 
HETATM    5  C2  UNK   900       7.766 -66.591 -51.526  1.00  0.00     0.050 C 
HETATM    6  C3  UNK   900       9.103 -68.043 -49.858  1.00  0.00     0.114 C 
HETATM    7  C4  UNK   900       6.378 -66.421 -52.169  1.00  0.00     0.054 C 
HETATM    8  C5  UNK   900       7.202 -70.151 -50.512  1.00  0.00     0.128 C 
HETATM    9  C6  UNK   900       9.034 -69.352 -49.076  1.00  0.00     0.138 C 
HETATM   10  C7  UNK   900       8.522 -70.534 -49.859  1.00  0.00     0.110 C 
HETATM   11  C8  UNK   900       5.297 -66.499 -51.133  1.00  0.00     0.011 A 
HETATM   12  C9  UNK   900       8.815 -66.721 -52.633  1.00  0.00     0.016 C 
HETATM   13  C10 UNK   900       5.553 -67.033 -49.867  1.00  0.00     0.087 A 
HETATM   14  C11 UNK   900       9.574 -66.899 -48.959  1.00  0.00     0.023 C 
HETATM   15  C12 UNK   900       6.716 -71.254 -51.442  1.00  0.00     0.040 C 
HETATM   16  C13 UNK   900       4.542 -67.083 -48.905  1.00  0.00    -0.027 A 
HETATM   17  C14 UNK   900       4.004 -66.053 -51.437  1.00  0.00     0.088 A 
HETATM   18  C15 UNK   900       2.991 -66.114 -50.479  1.00  0.00     0.044 A 
HETATM   19  C16 UNK   900       3.261 -66.626 -49.212  1.00  0.00     0.027 A 
HETATM   20  C17 UNK   900       4.803 -67.631 -47.539  1.00  0.00     0.051 C 
ENDROOT
BRANCH  17  21
HETATM   21  O4  UNK   900       3.727 -65.552 -52.677  1.00  0.00    -0.359 OA
HETATM   22  H21 UNK   900       4.273 -64.774 -52.866  1.00  0.00     0.217 HD
ENDBRANCH  17  21
BRANCH  18  23
HETATM   23  C18 UNK   900       1.644 -65.648 -50.782  1.00  0.00     0.158 C 
HETATM   24  O5  UNK   900       0.953 -66.188 -51.665  1.00  0.00    -0.293 OA
HETATM   25  C19 UNK   900       1.049 -64.475 -50.011  1.00  0.00     0.097 C 
ENDBRANCH  18  23
TORSDOF 2
ENDMDL
MODEL 2
REMARK VINA RESULT:      -6.7      2.539      4.707
REMARK  2 active torsions:
REMARK  status: ('A' for Active; 'I' for Inactive)
REMARK    1  A    between atoms: O4_4  and  C14_19 
REMARK    2  A    between atoms: C15_20  and  C18_23 
ROOT
HETATM    1  O1  UNK   900       9.493 -69.682 -47.370  1.00  0.00    -0.348 OA
HETATM    2  O2  UNK   900       7.508 -70.340 -48.561  1.00  0.00    -0.312 OA
HETATM    3  O3  UNK   900       8.989 -73.617 -47.871  1.00  0.00    -0.297 OA
HETATM    4  C1  UNK   900       8.154 -70.219 -47.271  1.00  0.00     0.184 C 
HETATM    5  C2  UNK   900       7.330 -69.242 -46.379  1.00  0.00     0.050 C 
HETATM    6  C3  UNK   900       8.229 -71.649 -46.661  1.00  0.00     0.114 C 
HETATM    7  C4  UNK   900       7.319 -67.850 -47.033  1.00  0.00     0.054 C 
HETATM    8  C5  UNK   900      10.362 -70.429 -48.227  1.00  0.00     0.128 C 
HETATM    9  C6  UNK   900       9.221 -72.476 -47.475  1.00  0.00     0.138 C 
HETATM   10  C7  UNK   900      10.570 -71.833 -47.679  1.00  0.00     0.110 C 
HETATM   11  C8  UNK   900       7.024 -67.953 -48.500  1.00  0.00     0.011 A 
HETATM   12  C9  UNK   900       7.842 -69.113 -44.943  1.00  0.00     0.016 C 
HETATM   13  C10 UNK   900       7.139 -69.172 -49.172  1.00  0.00     0.087 A 
HETATM   14  C11 UNK   900       6.879 -72.359 -46.567  1.00  0.00     0.023 C 
HETATM   15  C12 UNK   900      11.683 -69.677 -48.305  1.00  0.00     0.040 C 
HETATM   16  C13 UNK   900       6.844 -69.258 -50.535  1.00  0.00    -0.027 A 
HETATM   17  C14 UNK   900       6.647 -66.810 -49.219  1.00  0.00     0.088 A 
HETATM   18  C15 UNK   900       6.364 -66.894 -50.583  1.00  0.00     0.044 A 
HETATM   19  C16 UNK   900       6.459 -68.119 -51.240  1.00  0.00     0.027 A 
HETATM   20  C17 UNK   900       6.942 -70.558 -51.265  1.00  0.00     0.051 C 
ENDROOT
BRANCH  17  21
HETATM   21  O4  UNK   900       6.554 -65.604 -48.586  1.00  0.00    -0.359 OA
HETATM   22  H21 UNK   900       5.988 -64.995 -49.084  1.00  0.00     0.217 HD
ENDBRANCH  17  21
BRANCH  18  23
HETATM   23  C18 UNK   900       5.966 -65.714 -51.340  1.00  0.00     0.158 C 
HETATM   24  O5  UNK   900       6.758 -64.776 -51.543  1.00  0.00    -0.293 OA
HETATM   25  C19 UNK   900       4.554 -65.607 -51.903  1.00  0.00     0.097 C 
ENDBRANCH  18  23
TORSDOF 2
ENDMDL
MODEL 3
REMARK VINA RESULT:      -5.8     42.900     45.953
REMARK  2 active torsions:
REMARK  status: ('A' for Active; 'I' for Inactive)
REMARK    1  A    between atoms: O4_4  and  C14_19 
REMARK    2  A    between atoms: C15_20  and  C18_23 
ROOT
HETATM    1  O1  UNK   900      37.727 -46.482 -73.580  1.00  0.00    -0.348 OA
HETATM    2  O2  UNK   900      36.562 -44.382 -73.424  1.00  0.00    -0.312 OA
HETATM    3  O3  UNK   900      33.832 -46.581 -74.482  1.00  0.00    -0.297 OA
HETATM    4  C1  UNK   900      36.823 -45.663 -72.803  1.00  0.00     0.184 C 
HETATM    5  C2  UNK   900      37.490 -45.429 -71.414  1.00  0.00     0.050 C 
HETATM    6  C3  UNK   900      35.457 -46.398 -72.681  1.00  0.00     0.114 C 
HETATM    7  C4  UNK   900      38.840 -44.720 -71.618  1.00  0.00     0.054 C 
HETATM    8  C5  UNK   900      37.291 -46.726 -74.921  1.00  0.00     0.128 C 
HETATM    9  C6  UNK   900      34.978 -46.776 -74.081  1.00  0.00     0.138 C 
HETATM   10  C7  UNK   900      35.989 -47.514 -74.922  1.00  0.00     0.110 C 
HETATM   11  C8  UNK   900      38.705 -43.581 -72.584  1.00  0.00     0.011 A 
HETATM   12  C9  UNK   900      37.715 -46.703 -70.598  1.00  0.00     0.016 C 
HETATM   13  C10 UNK   900      37.594 -43.481 -73.424  1.00  0.00     0.087 A 
HETATM   14  C11 UNK   900      34.384 -45.602 -71.937  1.00  0.00     0.023 C 
HETATM   15  C12 UNK   900      38.395 -47.502 -75.626  1.00  0.00     0.040 C 
HETATM   16  C13 UNK   900      37.471 -42.406 -74.307  1.00  0.00    -0.027 A 
HETATM   17  C14 UNK   900      39.713 -42.611 -72.667  1.00  0.00     0.088 A 
HETATM   18  C15 UNK   900      39.595 -41.544 -73.557  1.00  0.00     0.044 A 
HETATM   19  C16 UNK   900      38.472 -41.439 -74.375  1.00  0.00     0.027 A 
HETATM   20  C17 UNK   900      36.278 -42.272 -75.199  1.00  0.00     0.051 C 
ENDROOT
BRANCH  17  21
HETATM   21  O4  UNK   900      40.820 -42.705 -71.872  1.00  0.00    -0.359 OA
HETATM   22  H21 UNK   900      40.618 -43.181 -71.052  1.00  0.00     0.217 HD
ENDBRANCH  17  21
BRANCH  18  23
HETATM   23  C18 UNK   900      40.634 -40.525 -73.648  1.00  0.00     0.158 C 
HETATM   24  O5  UNK   900      41.676 -40.718 -74.301  1.00  0.00    -0.293 OA
HETATM   25  C19 UNK   900      40.460 -39.189 -72.937  1.00  0.00     0.097 C 
ENDBRANCH  18  23
TORSDOF 2
ENDMDL
MODEL 4
REMARK VINA RESULT:      -5.8     26.558     28.951
REMARK  2 active torsions:
REMARK  status: ('A' for Active; 'I' for Inactive)
REMARK    1  A    between atoms: O4_4  and  C14_19 
REMARK    2  A    between atoms: C15_20  and  C18_23 
ROOT
HETATM    1  O1  UNK   900       7.740 -54.933 -77.108  1.00  0.00    -0.348 OA
HETATM    2  O2  UNK   900       9.781 -55.194 -75.860  1.00  0.00    -0.312 OA
HETATM    3  O3  UNK   900       9.451 -58.541 -77.307  1.00  0.00    -0.297 OA
HETATM    4  C1  UNK   900       9.183 -55.004 -77.165  1.00  0.00     0.184 C 
HETATM    5  C2  UNK   900       9.689 -53.657 -77.764  1.00  0.00     0.050 C 
HETATM    6  C3  UNK   900       9.593 -56.226 -78.036  1.00  0.00     0.114 C 
HETATM    7  C4  UNK   900       9.228 -52.500 -76.862  1.00  0.00     0.054 C 
HETATM    8  C5  UNK   900       7.120 -56.072 -76.504  1.00  0.00     0.128 C 
HETATM    9  C6  UNK   900       8.884 -57.468 -77.502  1.00  0.00     0.138 C 
HETATM   10  C7  UNK   900       7.394 -57.324 -77.325  1.00  0.00     0.110 C 
HETATM   11  C8  UNK   900       9.480 -52.816 -75.418  1.00  0.00     0.011 A 
HETATM   12  C9  UNK   900       9.222 -53.389 -79.196  1.00  0.00     0.016 C 
HETATM   13  C10 UNK   900       9.732 -54.126 -75.004  1.00  0.00     0.087 A 
HETATM   14  C11 UNK   900      11.102 -56.456 -78.120  1.00  0.00     0.023 C 
HETATM   15  C12 UNK   900       5.626 -55.791 -76.426  1.00  0.00     0.040 C 
HETATM   16  C13 UNK   900       9.983 -54.405 -73.658  1.00  0.00    -0.027 A 
HETATM   17  C14 UNK   900       9.443 -51.793 -74.461  1.00  0.00     0.088 A 
HETATM   18  C15 UNK   900       9.681 -52.074 -73.116  1.00  0.00     0.044 A 
HETATM   19  C16 UNK   900       9.956 -53.380 -72.715  1.00  0.00     0.027 A 
HETATM   20  C17 UNK   900      10.275 -55.798 -73.200  1.00  0.00     0.051 C 
ENDROOT
BRANCH  17  21
HETATM   21  O4  UNK   900       9.172 -50.510 -74.842  1.00  0.00    -0.359 OA
HETATM   22  H21 UNK   900       9.362 -49.888 -74.123  1.00  0.00     0.217 HD
ENDBRANCH  17  21
BRANCH  18  23
HETATM   23  C18 UNK   900       9.651 -51.018 -72.112  1.00  0.00     0.158 C 
HETATM   24  O5  UNK   900       8.618 -50.358 -71.895  1.00  0.00    -0.293 OA
HETATM   25  C19 UNK   900      10.900 -50.698 -71.300  1.00  0.00     0.097 C 
ENDBRANCH  18  23
TORSDOF 2
ENDMDL
MODEL 5
REMARK VINA RESULT:      -5.7     20.990     25.007
REMARK  2 active torsions:
REMARK  status: ('A' for Active; 'I' for Inactive)
REMARK    1  A    between atoms: O4_4  and  C14_19 
REMARK    2  A    between atoms: C15_20  and  C18_23 
ROOT
HETATM    1  O1  UNK   900      23.537 -60.349 -35.358  1.00  0.00    -0.348 OA
HETATM    2  O2  UNK   900      24.060 -60.619 -37.692  1.00  0.00    -0.312 OA
HETATM    3  O3  UNK   900      21.578 -63.275 -37.252  1.00  0.00    -0.297 OA
HETATM    4  C1  UNK   900      23.111 -60.117 -36.721  1.00  0.00     0.184 C 
HETATM    5  C2  UNK   900      22.964 -58.576 -36.903  1.00  0.00     0.050 C 
HETATM    6  C3  UNK   900      21.770 -60.868 -36.963  1.00  0.00     0.114 C 
HETATM    7  C4  UNK   900      24.320 -57.905 -36.628  1.00  0.00     0.054 C 
HETATM    8  C5  UNK   900      23.794 -61.722 -35.050  1.00  0.00     0.128 C 
HETATM    9  C6  UNK   900      21.947 -62.329 -36.559  1.00  0.00     0.138 C 
HETATM   10  C7  UNK   900      22.520 -62.543 -35.180  1.00  0.00     0.110 C 
HETATM   11  C8  UNK   900      25.429 -58.638 -37.322  1.00  0.00     0.011 A 
HETATM   12  C9  UNK   900      21.900 -57.933 -36.012  1.00  0.00     0.016 C 
HETATM   13  C10 UNK   900      25.242 -59.936 -37.802  1.00  0.00     0.087 A 
HETATM   14  C11 UNK   900      21.244 -60.761 -38.394  1.00  0.00     0.023 C 
HETATM   15  C12 UNK   900      24.332 -61.777 -33.626  1.00  0.00     0.040 C 
HETATM   16  C13 UNK   900      26.277 -60.601 -38.463  1.00  0.00    -0.027 A 
HETATM   17  C14 UNK   900      26.681 -58.027 -37.477  1.00  0.00     0.088 A 
HETATM   18  C15 UNK   900      27.719 -58.696 -38.127  1.00  0.00     0.044 A 
HETATM   19  C16 UNK   900      27.515 -59.982 -38.624  1.00  0.00     0.027 A 
HETATM   20  C17 UNK   900      26.087 -61.982 -39.001  1.00  0.00     0.051 C 
ENDROOT
BRANCH  17  21
HETATM   21  O4  UNK   900      26.893 -56.768 -36.991  1.00  0.00    -0.359 OA
HETATM   22  H21 UNK   900      26.608 -56.098 -37.631  1.00  0.00     0.217 HD
ENDBRANCH  17  21
BRANCH  18  23
HETATM   23  C18 UNK   900      29.023 -58.069 -38.300  1.00  0.00     0.158 C 
HETATM   24  O5  UNK   900      29.145 -56.975 -38.880  1.00  0.00    -0.293 OA
HETATM   25  C19 UNK   900      30.277 -58.752 -37.766  1.00  0.00     0.097 C 
ENDBRANCH  18  23
TORSDOF 2
ENDMDL
MODEL 6
REMARK VINA RESULT:      -5.7     22.639     26.261
REMARK  2 active torsions:
REMARK  status: ('A' for Active; 'I' for Inactive)
REMARK    1  A    between atoms: O4_4  and  C14_19 
REMARK    2  A    between atoms: C15_20  and  C18_23 
ROOT
HETATM    1  O1  UNK   900      28.718 -57.848 -37.420  1.00  0.00    -0.348 OA
HETATM    2  O2  UNK   900      27.937 -60.093 -37.045  1.00  0.00    -0.312 OA
HETATM    3  O3  UNK   900      31.554 -60.655 -37.157  1.00  0.00    -0.297 OA
HETATM    4  C1  UNK   900      28.539 -58.914 -36.459  1.00  0.00     0.184 C 
HETATM    5  C2  UNK   900      27.606 -58.371 -35.335  1.00  0.00     0.050 C 
HETATM    6  C3  UNK   900      29.933 -59.337 -35.912  1.00  0.00     0.114 C 
HETATM    7  C4  UNK   900      26.261 -57.956 -35.955  1.00  0.00     0.054 C 
HETATM    8  C5  UNK   900      29.494 -58.214 -38.564  1.00  0.00     0.128 C 
HETATM    9  C6  UNK   900      30.848 -59.650 -37.093  1.00  0.00     0.138 C 
HETATM   10  C7  UNK   900      30.913 -58.576 -38.150  1.00  0.00     0.110 C 
HETATM   11  C8  UNK   900      25.760 -59.008 -36.899  1.00  0.00     0.011 A 
HETATM   12  C9  UNK   900      28.181 -57.188 -34.553  1.00  0.00     0.016 C 
HETATM   13  C10 UNK   900      26.615 -59.998 -37.388  1.00  0.00     0.087 A 
HETATM   14  C11 UNK   900      29.890 -60.510 -34.933  1.00  0.00     0.023 C 
HETATM   15  C12 UNK   900      29.494 -57.025 -39.516  1.00  0.00     0.040 C 
HETATM   16  C13 UNK   900      26.132 -60.984 -38.253  1.00  0.00    -0.027 A 
HETATM   17  C14 UNK   900      24.423 -58.992 -37.318  1.00  0.00     0.088 A 
HETATM   18  C15 UNK   900      23.944 -59.969 -38.191  1.00  0.00     0.044 A 
HETATM   19  C16 UNK   900      24.798 -60.967 -38.655  1.00  0.00     0.027 A 
HETATM   20  C17 UNK   900      27.028 -62.063 -38.769  1.00  0.00     0.051 C 
ENDROOT
BRANCH  17  21
HETATM   21  O4  UNK   900      23.578 -58.016 -36.872  1.00  0.00    -0.359 OA
HETATM   22  H21 UNK   900      23.931 -57.590 -36.076  1.00  0.00     0.217 HD
ENDBRANCH  17  21
BRANCH  18  23
HETATM   23  C18 UNK   900      22.554 -59.967 -38.630  1.00  0.00     0.158 C 
HETATM   24  O5  UNK   900      21.933 -58.903 -38.811  1.00  0.00    -0.293 OA
HETATM   25  C19 UNK   900      21.828 -61.284 -38.878  1.00  0.00     0.097 C 
ENDBRANCH  18  23
TORSDOF 2
ENDMDL
MODEL 7
REMARK VINA RESULT:      -5.7      2.108      6.747
REMARK  2 active torsions:
REMARK  status: ('A' for Active; 'I' for Inactive)
REMARK    1  A    between atoms: O4_4  and  C14_19 
REMARK    2  A    between atoms: C15_20  and  C18_23 
ROOT
HETATM    1  O1  UNK   900       1.958 -68.003 -48.731  1.00  0.00    -0.348 OA
HETATM    2  O2  UNK   900       2.767 -65.995 -49.783  1.00  0.00    -0.312 OA
HETATM    3  O3  UNK   900      -0.783 -65.827 -50.665  1.00  0.00    -0.297 OA
HETATM    4  C1  UNK   900       2.052 -66.562 -48.659  1.00  0.00     0.184 C 
HETATM    5  C2  UNK   900       2.815 -66.214 -47.345  1.00  0.00     0.050 C 
HETATM    6  C3  UNK   900       0.617 -65.962 -48.681  1.00  0.00     0.114 C 
HETATM    7  C4  UNK   900       4.211 -66.857 -47.388  1.00  0.00     0.054 C 
HETATM    8  C5  UNK   900       1.347 -68.491 -49.929  1.00  0.00     0.128 C 
HETATM    9  C6  UNK   900      -0.129 -66.522 -49.890  1.00  0.00     0.138 C 
HETATM   10  C7  UNK   900      -0.099 -68.024 -50.017  1.00  0.00     0.110 C 
HETATM   11  C8  UNK   900       4.866 -66.622 -48.717  1.00  0.00     0.011 A 
HETATM   12  C9  UNK   900       2.102 -66.657 -46.065  1.00  0.00     0.016 C 
HETATM   13  C10 UNK   900       4.117 -66.217 -49.824  1.00  0.00     0.087 A 
HETATM   14  C11 UNK   900       0.578 -64.434 -48.680  1.00  0.00     0.023 C 
HETATM   15  C12 UNK   900       1.424 -70.011 -49.895  1.00  0.00     0.040 C 
HETATM   16  C13 UNK   900       4.742 -65.984 -51.052  1.00  0.00    -0.027 A 
HETATM   17  C14 UNK   900       6.244 -66.830 -48.863  1.00  0.00     0.088 A 
HETATM   18  C15 UNK   900       6.865 -66.609 -50.093  1.00  0.00     0.044 A 
HETATM   19  C16 UNK   900       6.115 -66.182 -51.186  1.00  0.00     0.027 A 
HETATM   20  C17 UNK   900       3.959 -65.530 -52.241  1.00  0.00     0.051 C 
ENDROOT
BRANCH  17  21
HETATM   21  O4  UNK   900       6.990 -67.252 -47.800  1.00  0.00    -0.359 OA
HETATM   22  H21 UNK   900       6.828 -66.696 -47.022  1.00  0.00     0.217 HD
ENDBRANCH  17  21
BRANCH  18  23
HETATM   23  C18 UNK   900       8.299 -66.816 -50.257  1.00  0.00     0.158 C 
HETATM   24  O5  UNK   900       9.129 -66.088 -49.683  1.00  0.00    -0.293 OA
HETATM   25  C19 UNK   900       8.813 -67.943 -51.145  1.00  0.00     0.097 C 
ENDBRANCH  18  23
TORSDOF 2
ENDMDL
MODEL 8
REMARK VINA RESULT:      -5.6     45.137     47.481
REMARK  2 active torsions:
REMARK  status: ('A' for Active; 'I' for Inactive)
REMARK    1  A    between atoms: O4_4  and  C14_19 
REMARK    2  A    between atoms: C15_20  and  C18_23 
ROOT
HETATM    1  O1  UNK   900      36.711 -30.844 -60.612  1.00  0.00    -0.348 OA
HETATM    2  O2  UNK   900      37.218 -31.646 -58.400  1.00  0.00    -0.312 OA
HETATM    3  O3  UNK   900      39.754 -29.029 -58.759  1.00  0.00    -0.297 OA
HETATM    4  C1  UNK   900      36.600 -30.602 -59.191  1.00  0.00     0.184 C 
HETATM    5  C2  UNK   900      35.081 -30.538 -58.850  1.00  0.00     0.050 C 
HETATM    6  C3  UNK   900      37.336 -29.274 -58.848  1.00  0.00     0.114 C 
HETATM    7  C4  UNK   900      34.422 -31.873 -59.235  1.00  0.00     0.054 C 
HETATM    8  C5  UNK   900      38.055 -31.009 -61.076  1.00  0.00     0.128 C 
HETATM    9  C6  UNK   900      38.756 -29.343 -59.404  1.00  0.00     0.138 C 
HETATM   10  C7  UNK   900      38.852 -29.731 -60.859  1.00  0.00     0.110 C 
HETATM   11  C8  UNK   900      35.246 -33.032 -58.759  1.00  0.00     0.011 A 
HETATM   12  C9  UNK   900      34.328 -29.395 -59.535  1.00  0.00     0.016 C 
HETATM   13  C10 UNK   900      36.579 -32.857 -58.381  1.00  0.00     0.087 A 
HETATM   14  C11 UNK   900      37.353 -28.937 -57.357  1.00  0.00     0.023 C 
HETATM   15  C12 UNK   900      37.987 -31.360 -62.556  1.00  0.00     0.040 C 
HETATM   16  C13 UNK   900      37.331 -33.941 -57.922  1.00  0.00    -0.027 A 
HETATM   17  C14 UNK   900      34.685 -34.315 -58.711  1.00  0.00     0.088 A 
HETATM   18  C15 UNK   900      35.441 -35.400 -58.264  1.00  0.00     0.044 A 
HETATM   19  C16 UNK   900      36.762 -35.212 -57.866  1.00  0.00     0.027 A 
HETATM   20  C17 UNK   900      38.752 -33.768 -57.493  1.00  0.00     0.051 C 
ENDROOT
BRANCH  17  21
HETATM   21  O4  UNK   900      33.392 -34.512 -59.103  1.00  0.00    -0.359 OA
HETATM   22  H21 UNK   900      32.824 -33.790 -58.794  1.00  0.00     0.217 HD
ENDBRANCH  17  21
BRANCH  18  23
HETATM   23  C18 UNK   900      34.867 -36.739 -58.204  1.00  0.00     0.158 C 
HETATM   24  O5  UNK   900      34.515 -37.341 -59.236  1.00  0.00    -0.293 OA
HETATM   25  C19 UNK   900      34.686 -37.434 -56.860  1.00  0.00     0.097 C 
ENDBRANCH  18  23
TORSDOF 2
ENDMDL
MODEL 9
REMARK VINA RESULT:      -5.6     23.447     25.959
REMARK  2 active torsions:
REMARK  status: ('A' for Active; 'I' for Inactive)
REMARK    1  A    between atoms: O4_4  and  C14_19 
REMARK    2  A    between atoms: C15_20  and  C18_23 
ROOT
HETATM    1  O1  UNK   900      27.618 -58.000 -36.950  1.00  0.00    -0.348 OA
HETATM    2  O2  UNK   900      25.712 -59.469 -36.976  1.00  0.00    -0.312 OA
HETATM    3  O3  UNK   900      27.727 -60.945 -39.653  1.00  0.00    -0.297 OA
HETATM    4  C1  UNK   900      27.092 -59.294 -36.574  1.00  0.00     0.184 C 
HETATM    5  C2  UNK   900      27.187 -59.399 -35.023  1.00  0.00     0.050 C 
HETATM    6  C3  UNK   900      27.919 -60.400 -37.290  1.00  0.00     0.114 C 
HETATM    7  C4  UNK   900      26.365 -58.264 -34.390  1.00  0.00     0.054 C 
HETATM    8  C5  UNK   900      27.528 -57.715 -38.349  1.00  0.00     0.128 C 
HETATM    9  C6  UNK   900      27.947 -60.100 -38.787  1.00  0.00     0.138 C 
HETATM   10  C7  UNK   900      28.371 -58.699 -39.147  1.00  0.00     0.110 C 
HETATM   11  C8  UNK   900      25.024 -58.144 -35.049  1.00  0.00     0.011 A 
HETATM   12  C9  UNK   900      28.615 -59.346 -34.473  1.00  0.00     0.016 C 
HETATM   13  C10 UNK   900      24.778 -58.739 -36.289  1.00  0.00     0.087 A 
HETATM   14  C11 UNK   900      27.417 -61.821 -37.031  1.00  0.00     0.023 C 
HETATM   15  C12 UNK   900      28.020 -56.288 -38.556  1.00  0.00     0.040 C 
HETATM   16  C13 UNK   900      23.519 -58.636 -36.885  1.00  0.00    -0.027 A 
HETATM   17  C14 UNK   900      24.003 -57.410 -34.430  1.00  0.00     0.088 A 
HETATM   18  C15 UNK   900      22.749 -57.297 -35.032  1.00  0.00     0.044 A 
HETATM   19  C16 UNK   900      22.506 -57.914 -36.257  1.00  0.00     0.027 A 
HETATM   20  C17 UNK   900      23.233 -59.284 -38.201  1.00  0.00     0.051 C 
ENDROOT
BRANCH  17  21
HETATM   21  O4  UNK   900      24.231 -56.799 -33.231  1.00  0.00    -0.359 OA
HETATM   22  H21 UNK   900      24.536 -57.438 -32.569  1.00  0.00     0.217 HD
ENDBRANCH  17  21
BRANCH  18  23
HETATM   23  C18 UNK   900      21.678 -56.541 -34.395  1.00  0.00     0.158 C 
HETATM   24  O5  UNK   900      21.850 -55.369 -34.012  1.00  0.00    -0.293 OA
HETATM   25  C19 UNK   900      20.310 -57.180 -34.185  1.00  0.00     0.097 C 
ENDBRANCH  18  23
TORSDOF 2
ENDMDL
