MODEL 1
REMARK VINA RESULT:      -6.6      0.000      0.000
REMARK  1 active torsions:
REMARK  status: ('A' for Active; 'I' for Inactive)
REMARK    1  A    between atoms: O1_1  and  C2_5 
ROOT
HETATM    1  O2  UNK   900      37.628 -43.136 -54.758  1.00  0.00    -0.292 OA
HETATM    2  O3  UNK   900      33.110 -36.930 -55.732  1.00  0.00    -0.293 OA
HETATM    3  C1  UNK   900      35.974 -38.965 -56.175  1.00  0.00     0.029 C 
HETATM    4  C2  UNK   900      37.163 -39.629 -55.433  1.00  0.00     0.102 C 
HETATM    5  C3  UNK   900      38.501 -39.930 -56.124  1.00  0.00     0.061 C 
HETATM    6  C4  UNK   900      39.035 -41.265 -55.499  1.00  0.00     0.021 C 
HETATM    7  C5  UNK   900      36.630 -41.024 -55.223  1.00  0.00     0.024 C 
HETATM    8  C6  UNK   900      35.473 -37.574 -55.726  1.00  0.00     0.071 C 
HETATM    9  C7  UNK   900      34.822 -39.824 -55.648  1.00  0.00    -0.042 C 
HETATM   10  C8  UNK   900      37.745 -41.974 -55.108  1.00  0.00     0.166 C 
HETATM   11  C9  UNK   900      35.305 -41.132 -55.317  1.00  0.00     0.022 C 
HETATM   12  C10 UNK   900      36.040 -39.119 -57.710  1.00  0.00     0.025 C 
HETATM   13  C11 UNK   900      33.964 -37.802 -55.686  1.00  0.00     0.154 C 
HETATM   14  C12 UNK   900      33.643 -39.231 -55.480  1.00  0.00     0.058 C 
HETATM   15  C13 UNK   900      39.809 -42.081 -56.534  1.00  0.00     0.023 C 
HETATM   16  C14 UNK   900      39.895 -41.030 -54.255  1.00  0.00     0.023 C 
HETATM   17  C15 UNK   900      35.871 -36.400 -56.605  1.00  0.00     0.019 C 
ENDROOT
BRANCH   4  18
HETATM   18  O1  UNK   900      37.397 -39.042 -54.158  1.00  0.00    -0.384 OA
HETATM   19  H9  UNK   900      37.374 -38.076 -54.273  1.00  0.00     0.211 HD
ENDBRANCH   4  18
TORSDOF 1
ENDMDL
MODEL 2
REMARK VINA RESULT:      -6.4     10.736     11.789
REMARK  1 active torsions:
REMARK  status: ('A' for Active; 'I' for Inactive)
REMARK    1  A    between atoms: O1_1  and  C2_5 
ROOT
HETATM    1  O2  UNK   900      30.247 -50.017 -59.910  1.00  0.00    -0.292 OA
HETATM    2  O3  UNK   900      29.483 -45.077 -65.817  1.00  0.00    -0.293 OA
HETATM    3  C1  UNK   900      31.198 -46.940 -63.341  1.00  0.00     0.029 C 
HETATM    4  C2  UNK   900      31.334 -47.159 -61.811  1.00  0.00     0.102 C 
HETATM    5  C3  UNK   900      32.638 -47.646 -61.162  1.00  0.00     0.061 C 
HETATM    6  C4  UNK   900      32.222 -48.558 -59.956  1.00  0.00     0.021 C 
HETATM    7  C5  UNK   900      30.448 -48.361 -61.610  1.00  0.00     0.024 C 
HETATM    8  C6  UNK   900      30.929 -45.522 -63.890  1.00  0.00     0.071 C 
HETATM    9  C7  UNK   900      29.817 -47.560 -63.572  1.00  0.00    -0.042 C 
HETATM   10  C8  UNK   900      30.879 -49.108 -60.420  1.00  0.00     0.166 C 
HETATM   11  C9  UNK   900      29.571 -48.575 -62.590  1.00  0.00     0.022 C 
HETATM   12  C10 UNK   900      32.235 -47.725 -64.172  1.00  0.00     0.025 C 
HETATM   13  C11 UNK   900      29.802 -45.797 -64.882  1.00  0.00     0.154 C 
HETATM   14  C12 UNK   900      29.055 -47.020 -64.520  1.00  0.00     0.058 C 
HETATM   15  C13 UNK   900      33.229 -49.689 -59.755  1.00  0.00     0.023 C 
HETATM   16  C14 UNK   900      32.039 -47.770 -58.657  1.00  0.00     0.023 C 
HETATM   17  C15 UNK   900      32.114 -44.809 -64.521  1.00  0.00     0.019 C 
ENDROOT
BRANCH   4  18
HETATM   18  O1  UNK   900      30.797 -46.074 -61.063  1.00  0.00    -0.384 OA
HETATM   19  H9  UNK   900      31.407 -45.323 -61.157  1.00  0.00     0.211 HD
ENDBRANCH   4  18
TORSDOF 1
ENDMDL
MODEL 3
REMARK VINA RESULT:      -6.3      9.419     10.935
REMARK  1 active torsions:
REMARK  status: ('A' for Active; 'I' for Inactive)
REMARK    1  A    between atoms: O1_1  and  C2_5 
ROOT
HETATM    1  O2  UNK   900      30.579 -48.907 -58.366  1.00  0.00    -0.292 OA
HETATM    2  O3  UNK   900      34.970 -43.977 -62.402  1.00  0.00    -0.293 OA
HETATM    3  C1  UNK   900      32.552 -46.515 -61.906  1.00  0.00     0.029 C 
HETATM    4  C2  UNK   900      32.340 -47.951 -61.359  1.00  0.00     0.102 C 
HETATM    5  C3  UNK   900      31.245 -48.885 -61.897  1.00  0.00     0.061 C 
HETATM    6  C4  UNK   900      30.739 -49.728 -60.676  1.00  0.00     0.021 C 
HETATM    7  C5  UNK   900      31.813 -47.659 -59.977  1.00  0.00     0.024 C 
HETATM    8  C6  UNK   900      33.873 -46.156 -62.620  1.00  0.00     0.071 C 
HETATM    9  C7  UNK   900      32.769 -45.762 -60.591  1.00  0.00    -0.042 C 
HETATM   10  C8  UNK   900      30.988 -48.781 -59.508  1.00  0.00     0.166 C 
HETATM   11  C9  UNK   900      32.077 -46.433 -59.529  1.00  0.00     0.022 C 
HETATM   12  C10 UNK   900      31.306 -45.931 -62.608  1.00  0.00     0.025 C 
HETATM   13  C11 UNK   900      34.220 -44.829 -61.950  1.00  0.00     0.154 C 
HETATM   14  C12 UNK   900      33.606 -44.728 -60.609  1.00  0.00     0.058 C 
HETATM   15  C13 UNK   900      29.249 -50.042 -60.809  1.00  0.00     0.023 C 
HETATM   16  C14 UNK   900      31.540 -51.017 -60.478  1.00  0.00     0.023 C 
HETATM   17  C15 UNK   900      33.814 -46.057 -64.135  1.00  0.00     0.019 C 
ENDROOT
BRANCH   4  18
HETATM   18  O1  UNK   900      33.565 -48.664 -61.231  1.00  0.00    -0.384 OA
HETATM   19  H9  UNK   900      33.379 -49.599 -61.425  1.00  0.00     0.211 HD
ENDBRANCH   4  18
TORSDOF 1
ENDMDL
MODEL 4
REMARK VINA RESULT:      -6.1     27.190     28.216
REMARK  1 active torsions:
REMARK  status: ('A' for Active; 'I' for Inactive)
REMARK    1  A    between atoms: O1_1  and  C2_5 
ROOT
HETATM    1  O2  UNK   900      26.125 -19.711 -70.501  1.00  0.00    -0.292 OA
HETATM    2  O3  UNK   900      24.975 -24.805 -76.211  1.00  0.00    -0.293 OA
HETATM    3  C1  UNK   900      24.184 -22.112 -74.052  1.00  0.00     0.029 C 
HETATM    4  C2  UNK   900      23.967 -21.723 -72.566  1.00  0.00     0.102 C 
HETATM    5  C3  UNK   900      23.046 -20.568 -72.143  1.00  0.00     0.061 C 
HETATM    6  C4  UNK   900      23.707 -19.911 -70.882  1.00  0.00     0.021 C 
HETATM    7  C5  UNK   900      25.318 -21.154 -72.216  1.00  0.00     0.024 C 
HETATM    8  C6  UNK   900      23.730 -23.502 -74.552  1.00  0.00     0.071 C 
HETATM    9  C7  UNK   900      25.698 -22.334 -74.047  1.00  0.00    -0.042 C 
HETATM   10  C8  UNK   900      25.186 -20.193 -71.113  1.00  0.00     0.166 C 
HETATM   11  C9  UNK   900      26.304 -21.520 -73.034  1.00  0.00     0.022 C 
HETATM   12  C10 UNK   900      23.856 -20.974 -75.044  1.00  0.00     0.025 C 
HETATM   13  C11 UNK   900      24.959 -23.947 -75.341  1.00  0.00     0.154 C 
HETATM   14  C12 UNK   900      26.182 -23.274 -74.855  1.00  0.00     0.058 C 
HETATM   15  C13 UNK   900      23.441 -18.407 -70.849  1.00  0.00     0.023 C 
HETATM   16  C14 UNK   900      23.253 -20.561 -69.573  1.00  0.00     0.023 C 
HETATM   17  C15 UNK   900      22.453 -23.536 -75.375  1.00  0.00     0.019 C 
ENDROOT
BRANCH   4  18
HETATM   18  O1  UNK   900      23.730 -22.858 -71.742  1.00  0.00    -0.384 OA
HETATM   19  H9  UNK   900      23.484 -23.596 -72.325  1.00  0.00     0.211 HD
ENDBRANCH   4  18
TORSDOF 1
ENDMDL
MODEL 5
REMARK VINA RESULT:      -5.8     40.404     42.295
REMARK  1 active torsions:
REMARK  status: ('A' for Active; 'I' for Inactive)
REMARK    1  A    between atoms: O1_1  and  C2_5 
ROOT
HETATM    1  O2  UNK   900       3.509 -70.929 -50.447  1.00  0.00    -0.292 OA
HETATM    2  O3  UNK   900       9.406 -65.990 -49.598  1.00  0.00    -0.293 OA
HETATM    3  C1  UNK   900       6.813 -67.690 -51.308  1.00  0.00     0.029 C 
HETATM    4  C2  UNK   900       6.317 -69.092 -51.754  1.00  0.00     0.102 C 
HETATM    5  C3  UNK   900       5.443 -69.299 -52.999  1.00  0.00     0.061 C 
HETATM    6  C4  UNK   900       4.463 -70.476 -52.665  1.00  0.00     0.021 C 
HETATM    7  C5  UNK   900       5.334 -69.413 -50.657  1.00  0.00     0.024 C 
HETATM    8  C6  UNK   900       8.326 -67.382 -51.300  1.00  0.00     0.071 C 
HETATM    9  C7  UNK   900       6.574 -67.795 -49.800  1.00  0.00    -0.042 C 
HETATM   10  C8  UNK   900       4.321 -70.354 -51.153  1.00  0.00     0.166 C 
HETATM   11  C9  UNK   900       5.494 -68.701 -49.542  1.00  0.00     0.022 C 
HETATM   12  C10 UNK   900       5.960 -66.528 -51.863  1.00  0.00     0.025 C 
HETATM   13  C11 UNK   900       8.486 -66.722 -49.933  1.00  0.00     0.154 C 
HETATM   14  C12 UNK   900       7.424 -67.156 -49.000  1.00  0.00     0.058 C 
HETATM   15  C13 UNK   900       3.113 -70.275 -53.352  1.00  0.00     0.023 C 
HETATM   16  C14 UNK   900       5.044 -71.846 -53.022  1.00  0.00     0.023 C 
HETATM   17  C15 UNK   900       8.843 -66.518 -52.439  1.00  0.00     0.019 C 
ENDROOT
BRANCH   4  18
HETATM   18  O1  UNK   900       7.356 -70.064 -51.724  1.00  0.00    -0.384 OA
HETATM   19  H9  UNK   900       7.636 -70.220 -52.643  1.00  0.00     0.211 HD
ENDBRANCH   4  18
TORSDOF 1
ENDMDL
MODEL 6
REMARK VINA RESULT:      -5.1     26.761     28.480
REMARK  1 active torsions:
REMARK  status: ('A' for Active; 'I' for Inactive)
REMARK    1  A    between atoms: O1_1  and  C2_5 
ROOT
HETATM    1  O2  UNK   900      22.375 -21.625 -74.559  1.00  0.00    -0.292 OA
HETATM    2  O3  UNK   900      28.667 -17.727 -72.304  1.00  0.00    -0.293 OA
HETATM    3  C1  UNK   900      26.839 -20.441 -73.656  1.00  0.00     0.029 C 
HETATM    4  C2  UNK   900      25.758 -21.506 -73.332  1.00  0.00     0.102 C 
HETATM    5  C3  UNK   900      25.705 -22.868 -74.040  1.00  0.00     0.061 C 
HETATM    6  C4  UNK   900      24.188 -23.238 -74.182  1.00  0.00     0.021 C 
HETATM    7  C5  UNK   900      24.524 -20.846 -73.890  1.00  0.00     0.024 C 
HETATM    8  C6  UNK   900      27.849 -20.020 -72.566  1.00  0.00     0.071 C 
HETATM    9  C7  UNK   900      25.967 -19.183 -73.683  1.00  0.00    -0.042 C 
HETATM   10  C8  UNK   900      23.530 -21.865 -74.252  1.00  0.00     0.166 C 
HETATM   11  C9  UNK   900      24.629 -19.529 -74.064  1.00  0.00     0.022 C 
HETATM   12  C10 UNK   900      27.487 -20.621 -75.046  1.00  0.00     0.025 C 
HETATM   13  C11 UNK   900      27.804 -18.500 -72.692  1.00  0.00     0.154 C 
HETATM   14  C12 UNK   900      26.519 -18.047 -73.265  1.00  0.00     0.058 C 
HETATM   15  C13 UNK   900      23.937 -24.025 -75.468  1.00  0.00     0.023 C 
HETATM   16  C14 UNK   900      23.654 -24.008 -72.973  1.00  0.00     0.023 C 
HETATM   17  C15 UNK   900      29.254 -20.585 -72.697  1.00  0.00     0.019 C 
ENDROOT
BRANCH   4  18
HETATM   18  O1  UNK   900      25.579 -21.682 -71.931  1.00  0.00    -0.384 OA
HETATM   19  H9  UNK   900      25.396 -22.625 -71.776  1.00  0.00     0.211 HD
ENDBRANCH   4  18
TORSDOF 1
ENDMDL
MODEL 7
REMARK VINA RESULT:      -5.1     29.064     30.961
REMARK  1 active torsions:
REMARK  status: ('A' for Active; 'I' for Inactive)
REMARK    1  A    between atoms: O1_1  and  C2_5 
ROOT
HETATM    1  O2  UNK   900      20.808 -62.902 -37.998  1.00  0.00    -0.292 OA
HETATM    2  O3  UNK   900      26.948 -58.193 -37.925  1.00  0.00    -0.293 OA
HETATM    3  C1  UNK   900      23.908 -59.586 -36.759  1.00  0.00     0.029 C 
HETATM    4  C2  UNK   900      22.414 -59.802 -37.115  1.00  0.00     0.102 C 
HETATM    5  C3  UNK   900      21.322 -59.932 -36.042  1.00  0.00     0.061 C 
HETATM    6  C4  UNK   900      20.273 -60.958 -36.596  1.00  0.00     0.021 C 
HETATM    7  C5  UNK   900      22.446 -61.206 -37.661  1.00  0.00     0.024 C 
HETATM    8  C6  UNK   900      24.615 -58.280 -37.185  1.00  0.00     0.071 C 
HETATM    9  C7  UNK   900      24.557 -60.553 -37.753  1.00  0.00    -0.042 C 
HETATM   10  C8  UNK   900      21.132 -61.840 -37.493  1.00  0.00     0.166 C 
HETATM   11  C9  UNK   900      23.651 -61.624 -38.049  1.00  0.00     0.022 C 
HETATM   12  C10 UNK   900      24.274 -60.034 -35.327  1.00  0.00     0.025 C 
HETATM   13  C11 UNK   900      25.912 -58.824 -37.775  1.00  0.00     0.154 C 
HETATM   14  C12 UNK   900      25.745 -60.215 -38.248  1.00  0.00     0.058 C 
HETATM   15  C13 UNK   900      19.658 -61.776 -35.462  1.00  0.00     0.023 C 
HETATM   16  C14 UNK   900      19.176 -60.287 -37.425  1.00  0.00     0.023 C 
HETATM   17  C15 UNK   900      24.847 -57.253 -36.089  1.00  0.00     0.019 C 
ENDROOT
BRANCH   4  18
HETATM   18  O1  UNK   900      21.975 -58.927 -38.148  1.00  0.00    -0.384 OA
HETATM   19  H9  UNK   900      22.115 -59.384 -38.995  1.00  0.00     0.211 HD
ENDBRANCH   4  18
TORSDOF 1
ENDMDL
MODEL 8
REMARK VINA RESULT:      -5.1     15.498     18.300
REMARK  1 active torsions:
REMARK  status: ('A' for Active; 'I' for Inactive)
REMARK    1  A    between atoms: O1_1  and  C2_5 
ROOT
HETATM    1  O2  UNK   900      20.771 -27.408 -50.896  1.00  0.00    -0.292 OA
HETATM    2  O3  UNK   900      28.278 -26.418 -52.495  1.00  0.00    -0.293 OA
HETATM    3  C1  UNK   900      25.415 -28.088 -51.249  1.00  0.00     0.029 C 
HETATM    4  C2  UNK   900      24.260 -27.990 -50.217  1.00  0.00     0.102 C 
HETATM    5  C3  UNK   900      23.588 -29.232 -49.613  1.00  0.00     0.061 C 
HETATM    6  C4  UNK   900      22.076 -28.869 -49.414  1.00  0.00     0.021 C 
HETATM    7  C5  UNK   900      23.146 -27.454 -51.079  1.00  0.00     0.024 C 
HETATM    8  C6  UNK   900      26.813 -27.541 -50.886  1.00  0.00     0.071 C 
HETATM    9  C7  UNK   900      24.975 -27.005 -52.238  1.00  0.00    -0.042 C 
HETATM   10  C8  UNK   900      21.846 -27.845 -50.519  1.00  0.00     0.166 C 
HETATM   11  C9  UNK   900      23.548 -26.872 -52.209  1.00  0.00     0.022 C 
HETATM   12  C10 UNK   900      25.466 -29.441 -51.992  1.00  0.00     0.025 C 
HETATM   13  C11 UNK   900      27.154 -26.744 -52.141  1.00  0.00     0.154 C 
HETATM   14  C12 UNK   900      25.932 -26.314 -52.853  1.00  0.00     0.058 C 
HETATM   15  C13 UNK   900      21.188 -30.096 -49.620  1.00  0.00     0.023 C 
HETATM   16  C14 UNK   900      21.797 -28.232 -48.051  1.00  0.00     0.023 C 
HETATM   17  C15 UNK   900      27.869 -28.577 -50.535  1.00  0.00     0.019 C 
ENDROOT
BRANCH   4  18
HETATM   18  O1  UNK   900      24.532 -27.041 -49.193  1.00  0.00    -0.384 OA
HETATM   19  H9  UNK   900      24.626 -27.531 -48.358  1.00  0.00     0.211 HD
ENDBRANCH   4  18
TORSDOF 1
ENDMDL
MODEL 9
REMARK VINA RESULT:      -5.0     37.916     39.946
REMARK  1 active torsions:
REMARK  status: ('A' for Active; 'I' for Inactive)
REMARK    1  A    between atoms: O1_1  and  C2_5 
ROOT
HETATM    1  O2  UNK   900       5.003 -49.765 -79.680  1.00  0.00    -0.292 OA
HETATM    2  O3  UNK   900       9.923 -54.080 -75.550  1.00  0.00    -0.293 OA
HETATM    3  C1  UNK   900       7.800 -53.276 -78.268  1.00  0.00     0.029 C 
HETATM    4  C2  UNK   900       6.333 -52.951 -78.656  1.00  0.00     0.102 C 
HETATM    5  C3  UNK   900       5.762 -53.257 -80.048  1.00  0.00     0.061 C 
HETATM    6  C4  UNK   900       4.749 -52.106 -80.378  1.00  0.00     0.021 C 
HETATM    7  C5  UNK   900       6.369 -51.445 -78.687  1.00  0.00     0.024 C 
HETATM    8  C6  UNK   900       8.085 -54.307 -77.154  1.00  0.00     0.071 C 
HETATM    9  C7  UNK   900       8.163 -51.993 -77.516  1.00  0.00    -0.042 C 
HETATM   10  C8  UNK   900       5.328 -50.937 -79.591  1.00  0.00     0.166 C 
HETATM   11  C9  UNK   900       7.386 -50.899 -78.021  1.00  0.00     0.022 C 
HETATM   12  C10 UNK   900       8.743 -53.418 -79.483  1.00  0.00     0.025 C 
HETATM   13  C11 UNK   900       9.130 -53.565 -76.325  1.00  0.00     0.154 C 
HETATM   14  C12 UNK   900       9.009 -52.102 -76.495  1.00  0.00     0.058 C 
HETATM   15  C13 UNK   900       4.741 -51.799 -81.875  1.00  0.00     0.023 C 
HETATM   16  C14 UNK   900       3.332 -52.410 -79.888  1.00  0.00     0.023 C 
HETATM   17  C15 UNK   900       8.556 -55.678 -77.611  1.00  0.00     0.019 C 
ENDROOT
BRANCH   4  18
HETATM   18  O1  UNK   900       5.409 -53.358 -77.653  1.00  0.00    -0.384 OA
HETATM   19  H9  UNK   900       5.370 -54.329 -77.669  1.00  0.00     0.211 HD
ENDBRANCH   4  18
TORSDOF 1
ENDMDL
