MODEL 1
REMARK VINA RESULT:      -5.3      0.000      0.000
REMARK  6 active torsions:
REMARK  status: ('A' for Active; 'I' for Inactive)
REMARK    1  A    between atoms: O1_1  and  C3_7 
REMARK    2  A    between atoms: O2_2  and  C4_8 
REMARK    3  A    between atoms: O4_4  and  C16_20 
REMARK    4  A    between atoms: C1_5  and  C9_13 
REMARK    5  A    between atoms: C9_13  and  C14_18 
REMARK    6  A    between atoms: C14_18  and  C16_20 
ROOT
HETATM    1  C1  UNK   900      37.703 -40.779 -56.236  1.00  0.00     0.061 C 
HETATM    2  C2  UNK   900      37.225 -39.281 -56.203  1.00  0.00     0.066 C 
HETATM    3  C3  UNK   900      37.027 -41.566 -55.046  1.00  0.00     0.087 C 
HETATM    4  C4  UNK   900      37.851 -38.339 -57.269  1.00  0.00     0.128 C 
HETATM    5  C5  UNK   900      35.701 -39.166 -56.188  1.00  0.00    -0.054 C 
HETATM    6  C6  UNK   900      37.267 -36.930 -57.124  1.00  0.00     0.040 C 
HETATM    7  C7  UNK   900      35.745 -36.925 -57.351  1.00  0.00     0.007 C 
HETATM    8  C8  UNK   900      37.422 -41.476 -57.591  1.00  0.00     0.028 C 
HETATM    9  C10 UNK   900      35.534 -41.330 -55.037  1.00  0.00     0.012 C 
HETATM   10  C11 UNK   900      35.057 -38.107 -56.715  1.00  0.00    -0.015 C 
HETATM   11  C12 UNK   900      34.953 -40.244 -55.567  1.00  0.00     0.006 C 
HETATM   12  C13 UNK   900      37.576 -41.206 -53.653  1.00  0.00     0.051 C 
HETATM   13  C15 UNK   900      35.144 -35.611 -56.848  1.00  0.00     0.014 C 
ENDROOT
BRANCH   1  14
HETATM   14  C9  UNK   900      39.205 -40.825 -56.049  1.00  0.00     0.141 C 
HETATM   15  O3  UNK   900      39.769 -40.056 -55.273  1.00  0.00    -0.297 OA
BRANCH  14  16
HETATM   16  C14 UNK   900      39.948 -41.866 -56.872  1.00  0.00     0.105 C 
BRANCH  16  17
HETATM   17  C16 UNK   900      40.837 -42.767 -56.026  1.00  0.00     0.174 C 
BRANCH  17  18
HETATM   18  O4  UNK   900      40.062 -43.460 -55.055  1.00  0.00    -0.396 OA
HETATM   19  C17 UNK   900      40.646 -43.370 -53.763  1.00  0.00     0.201 C 
ENDBRANCH  17  18
ENDBRANCH  16  17
ENDBRANCH  14  16
ENDBRANCH   1  14
BRANCH   3  20
HETATM   20  O1  UNK   900      37.256 -42.971 -55.226  1.00  0.00    -0.385 OA
HETATM   21  H20 UNK   900      36.464 -43.362 -55.634  1.00  0.00     0.211 HD
ENDBRANCH   3  20
BRANCH   4  22
HETATM   22  O2  UNK   900      37.610 -38.793 -58.594  1.00  0.00    -0.395 OA
HETATM   23  H21 UNK   900      38.362 -38.516 -59.144  1.00  0.00     0.210 HD
ENDBRANCH   4  22
TORSDOF 6
ENDMDL
MODEL 2
REMARK VINA RESULT:      -5.1      2.201      5.360
REMARK  6 active torsions:
REMARK  status: ('A' for Active; 'I' for Inactive)
REMARK    1  A    between atoms: O1_1  and  C3_7 
REMARK    2  A    between atoms: O2_2  and  C4_8 
REMARK    3  A    between atoms: O4_4  and  C16_20 
REMARK    4  A    between atoms: C1_5  and  C9_13 
REMARK    5  A    between atoms: C9_13  and  C14_18 
REMARK    6  A    between atoms: C14_18  and  C16_20 
ROOT
HETATM    1  C1  UNK   900      37.108 -40.247 -56.104  1.00  0.00     0.061 C 
HETATM    2  C2  UNK   900      37.222 -41.106 -57.417  1.00  0.00     0.066 C 
HETATM    3  C3  UNK   900      37.402 -41.165 -54.855  1.00  0.00     0.087 C 
HETATM    4  C4  UNK   900      36.891 -40.372 -58.746  1.00  0.00     0.128 C 
HETATM    5  C5  UNK   900      38.559 -41.841 -57.506  1.00  0.00    -0.054 C 
HETATM    6  C6  UNK   900      37.074 -41.330 -59.928  1.00  0.00     0.040 C 
HETATM    7  C7  UNK   900      38.527 -41.826 -60.031  1.00  0.00     0.007 C 
HETATM    8  C8  UNK   900      38.035 -39.006 -56.108  1.00  0.00     0.028 C 
HETATM    9  C10 UNK   900      38.690 -41.933 -55.054  1.00  0.00     0.012 C 
HETATM   10  C11 UNK   900      39.131 -42.146 -58.687  1.00  0.00    -0.015 C 
HETATM   11  C12 UNK   900      39.201 -42.219 -56.260  1.00  0.00     0.006 C 
HETATM   12  C13 UNK   900      36.288 -42.179 -54.535  1.00  0.00     0.051 C 
HETATM   13  C15 UNK   900      38.603 -43.037 -60.963  1.00  0.00     0.014 C 
ENDROOT
BRANCH   1  14
HETATM   14  C9  UNK   900      35.697 -39.710 -55.982  1.00  0.00     0.141 C 
HETATM   15  O3  UNK   900      34.726 -40.456 -56.095  1.00  0.00    -0.297 OA
BRANCH  14  16
HETATM   16  C14 UNK   900      35.571 -38.218 -55.717  1.00  0.00     0.105 C 
BRANCH  16  17
HETATM   17  C16 UNK   900      34.588 -37.530 -56.653  1.00  0.00     0.174 C 
BRANCH  17  18
HETATM   18  O4  UNK   900      33.516 -36.957 -55.915  1.00  0.00    -0.396 OA
HETATM   19  C17 UNK   900      32.344 -37.757 -55.993  1.00  0.00     0.201 C 
ENDBRANCH  17  18
ENDBRANCH  16  17
ENDBRANCH  14  16
ENDBRANCH   1  14
BRANCH   3  20
HETATM   20  O1  UNK   900      37.552 -40.339 -53.692  1.00  0.00    -0.385 OA
HETATM   21  H20 UNK   900      37.355 -39.420 -53.940  1.00  0.00     0.211 HD
ENDBRANCH   3  20
BRANCH   4  22
HETATM   22  O2  UNK   900      37.722 -39.236 -58.952  1.00  0.00    -0.395 OA
HETATM   23  H21 UNK   900      38.194 -39.059 -58.122  1.00  0.00     0.210 HD
ENDBRANCH   4  22
TORSDOF 6
ENDMDL
MODEL 3
REMARK VINA RESULT:      -5.0     16.911     19.723
REMARK  6 active torsions:
REMARK  status: ('A' for Active; 'I' for Inactive)
REMARK    1  A    between atoms: O1_1  and  C3_7 
REMARK    2  A    between atoms: O2_2  and  C4_8 
REMARK    3  A    between atoms: O4_4  and  C16_20 
REMARK    4  A    between atoms: C1_5  and  C9_13 
REMARK    5  A    between atoms: C9_13  and  C14_18 
REMARK    6  A    between atoms: C14_18  and  C16_20 
ROOT
HETATM    1  C1  UNK   900      22.746 -30.819 -49.280  1.00  0.00     0.061 C 
HETATM    2  C2  UNK   900      22.311 -31.591 -47.981  1.00  0.00     0.066 C 
HETATM    3  C3  UNK   900      24.308 -30.957 -49.468  1.00  0.00     0.087 C 
HETATM    4  C4  UNK   900      20.807 -31.501 -47.602  1.00  0.00     0.128 C 
HETATM    5  C5  UNK   900      22.797 -33.040 -47.985  1.00  0.00    -0.054 C 
HETATM    6  C6  UNK   900      20.539 -32.322 -46.336  1.00  0.00     0.040 C 
HETATM    7  C7  UNK   900      20.866 -33.810 -46.551  1.00  0.00     0.007 C 
HETATM    8  C8  UNK   900      21.993 -31.293 -50.548  1.00  0.00     0.028 C 
HETATM    9  C10 UNK   900      24.727 -32.406 -49.367  1.00  0.00     0.012 C 
HETATM   10  C11 UNK   900      22.130 -34.021 -47.347  1.00  0.00    -0.015 C 
HETATM   11  C12 UNK   900      24.025 -33.334 -48.701  1.00  0.00     0.006 C 
HETATM   12  C13 UNK   900      25.143 -30.147 -48.459  1.00  0.00     0.051 C 
HETATM   13  C15 UNK   900      20.946 -34.529 -45.203  1.00  0.00     0.014 C 
ENDROOT
BRANCH   1  14
HETATM   14  C9  UNK   900      22.410 -29.351 -49.122  1.00  0.00     0.141 C 
HETATM   15  O3  UNK   900      22.741 -28.732 -48.112  1.00  0.00    -0.297 OA
BRANCH  14  16
HETATM   16  C14 UNK   900      21.652 -28.712 -50.275  1.00  0.00     0.105 C 
BRANCH  16  17
HETATM   17  C16 UNK   900      22.397 -27.540 -50.898  1.00  0.00     0.174 C 
BRANCH  17  18
HETATM   18  O4  UNK   900      23.688 -27.946 -51.332  1.00  0.00    -0.396 OA
HETATM   19  C17 UNK   900      24.657 -26.931 -51.107  1.00  0.00     0.201 C 
ENDBRANCH  17  18
ENDBRANCH  16  17
ENDBRANCH  14  16
ENDBRANCH   1  14
BRANCH   3  20
HETATM   20  O1  UNK   900      24.665 -30.480 -50.773  1.00  0.00    -0.385 OA
HETATM   21  H20 UNK   900      25.483 -29.960 -50.697  1.00  0.00     0.211 HD
ENDBRANCH   3  20
BRANCH   4  22
HETATM   22  O2  UNK   900      19.963 -31.983 -48.640  1.00  0.00    -0.395 OA
HETATM   23  H21 UNK   900      20.342 -32.814 -48.969  1.00  0.00     0.210 HD
ENDBRANCH   4  22
TORSDOF 6
ENDMDL
MODEL 4
REMARK VINA RESULT:      -4.8     17.822     20.204
REMARK  6 active torsions:
REMARK  status: ('A' for Active; 'I' for Inactive)
REMARK    1  A    between atoms: O1_1  and  C3_7 
REMARK    2  A    between atoms: O2_2  and  C4_8 
REMARK    3  A    between atoms: O4_4  and  C16_20 
REMARK    4  A    between atoms: C1_5  and  C9_13 
REMARK    5  A    between atoms: C9_13  and  C14_18 
REMARK    6  A    between atoms: C14_18  and  C16_20 
ROOT
HETATM    1  C1  UNK   900      22.656 -28.856 -49.625  1.00  0.00     0.061 C 
HETATM    2  C2  UNK   900      23.012 -28.081 -50.947  1.00  0.00     0.066 C 
HETATM    3  C3  UNK   900      23.079 -30.369 -49.778  1.00  0.00     0.087 C 
HETATM    4  C4  UNK   900      22.596 -26.585 -50.997  1.00  0.00     0.128 C 
HETATM    5  C5  UNK   900      24.477 -28.264 -51.341  1.00  0.00    -0.054 C 
HETATM    6  C6  UNK   900      23.034 -25.968 -52.329  1.00  0.00     0.040 C 
HETATM    7  C7  UNK   900      24.563 -26.022 -52.500  1.00  0.00     0.007 C 
HETATM    8  C8  UNK   900      23.298 -28.228 -48.362  1.00  0.00     0.028 C 
HETATM    9  C10 UNK   900      24.508 -30.471 -50.261  1.00  0.00     0.012 C 
HETATM   10  C11 UNK   900      25.156 -27.326 -52.028  1.00  0.00    -0.015 C 
HETATM   11  C12 UNK   900      25.125 -29.505 -50.957  1.00  0.00     0.006 C 
HETATM   12  C13 UNK   900      22.192 -31.182 -50.738  1.00  0.00     0.051 C 
HETATM   13  C15 UNK   900      24.938 -25.749 -53.957  1.00  0.00     0.014 C 
ENDROOT
BRANCH   1  14
HETATM   14  C9  UNK   900      21.159 -28.797 -49.402  1.00  0.00     0.141 C 
HETATM   15  O3  UNK   900      20.384 -28.670 -50.349  1.00  0.00    -0.297 OA
BRANCH  14  16
HETATM   16  C14 UNK   900      20.694 -28.905 -47.959  1.00  0.00     0.105 C 
BRANCH  16  17
HETATM   17  C16 UNK   900      19.571 -29.915 -47.771  1.00  0.00     0.174 C 
BRANCH  17  18
HETATM   18  O4  UNK   900      20.047 -31.236 -47.996  1.00  0.00    -0.396 OA
HETATM   19  C17 UNK   900      19.019 -32.199 -47.811  1.00  0.00     0.201 C 
ENDBRANCH  17  18
ENDBRANCH  16  17
ENDBRANCH  14  16
ENDBRANCH   1  14
BRANCH   3  20
HETATM   20  O1  UNK   900      22.994 -31.010 -48.498  1.00  0.00    -0.385 OA
HETATM   21  H20 UNK   900      22.216 -31.593 -48.497  1.00  0.00     0.211 HD
ENDBRANCH   3  20
BRANCH   4  22
HETATM   22  O2  UNK   900      23.176 -25.832 -49.938  1.00  0.00    -0.395 OA
HETATM   23  H21 UNK   900      24.083 -25.604 -50.199  1.00  0.00     0.210 HD
ENDBRANCH   4  22
TORSDOF 6
ENDMDL
MODEL 5
REMARK VINA RESULT:      -4.8     40.051     42.044
REMARK  6 active torsions:
REMARK  status: ('A' for Active; 'I' for Inactive)
REMARK    1  A    between atoms: O1_1  and  C3_7 
REMARK    2  A    between atoms: O2_2  and  C4_8 
REMARK    3  A    between atoms: O4_4  and  C16_20 
REMARK    4  A    between atoms: C1_5  and  C9_13 
REMARK    5  A    between atoms: C9_13  and  C14_18 
REMARK    6  A    between atoms: C14_18  and  C16_20 
ROOT
HETATM    1  C1  UNK   900       4.476 -64.249 -62.112  1.00  0.00     0.061 C 
HETATM    2  C2  UNK   900       4.580 -64.503 -63.661  1.00  0.00     0.066 C 
HETATM    3  C3  UNK   900       3.638 -65.412 -61.450  1.00  0.00     0.087 C 
HETATM    4  C4  UNK   900       5.315 -63.410 -64.485  1.00  0.00     0.128 C 
HETATM    5  C5  UNK   900       5.120 -65.896 -63.978  1.00  0.00    -0.054 C 
HETATM    6  C6  UNK   900       5.356 -63.814 -65.963  1.00  0.00     0.040 C 
HETATM    7  C7  UNK   900       6.125 -65.131 -66.166  1.00  0.00     0.007 C 
HETATM    8  C8  UNK   900       5.858 -64.104 -61.427  1.00  0.00     0.028 C 
HETATM    9  C10 UNK   900       4.171 -66.760 -61.883  1.00  0.00     0.012 C 
HETATM   10  C11 UNK   900       5.818 -66.155 -65.101  1.00  0.00    -0.015 C 
HETATM   11  C12 UNK   900       4.847 -66.955 -63.025  1.00  0.00     0.006 C 
HETATM   12  C13 UNK   900       2.132 -65.370 -61.766  1.00  0.00     0.051 C 
HETATM   13  C15 UNK   900       5.841 -65.695 -67.559  1.00  0.00     0.014 C 
ENDROOT
BRANCH   1  14
HETATM   14  C9  UNK   900       3.753 -62.941 -61.870  1.00  0.00     0.141 C 
HETATM   15  O3  UNK   900       3.902 -62.322 -60.818  1.00  0.00    -0.297 OA
BRANCH  14  16
HETATM   16  C14 UNK   900       2.851 -62.458 -62.995  1.00  0.00     0.105 C 
BRANCH  16  17
HETATM   17  C16 UNK   900       1.945 -61.309 -62.578  1.00  0.00     0.174 C 
BRANCH  17  18
HETATM   18  O4  UNK   900       0.582 -61.712 -62.612  1.00  0.00    -0.396 OA
HETATM   19  C17 UNK   900       0.155 -62.214 -61.353  1.00  0.00     0.201 C 
ENDBRANCH  17  18
ENDBRANCH  16  17
ENDBRANCH  14  16
ENDBRANCH   1  14
BRANCH   3  20
HETATM   20  O1  UNK   900       3.761 -65.323 -60.024  1.00  0.00    -0.385 OA
HETATM   21  H20 UNK   900       4.236 -66.109 -59.705  1.00  0.00     0.211 HD
ENDBRANCH   3  20
BRANCH   4  22
HETATM   22  O2  UNK   900       6.649 -63.206 -64.036  1.00  0.00    -0.395 OA
HETATM   23  H21 UNK   900       7.196 -63.925 -64.392  1.00  0.00     0.210 HD
ENDBRANCH   4  22
TORSDOF 6
ENDMDL
MODEL 6
REMARK VINA RESULT:      -4.7      8.007     11.312
REMARK  6 active torsions:
REMARK  status: ('A' for Active; 'I' for Inactive)
REMARK    1  A    between atoms: O1_1  and  C3_7 
REMARK    2  A    between atoms: O2_2  and  C4_8 
REMARK    3  A    between atoms: O4_4  and  C16_20 
REMARK    4  A    between atoms: C1_5  and  C9_13 
REMARK    5  A    between atoms: C9_13  and  C14_18 
REMARK    6  A    between atoms: C14_18  and  C16_20 
ROOT
HETATM    1  C1  UNK   900      36.793 -30.495 -59.664  1.00  0.00     0.061 C 
HETATM    2  C2  UNK   900      36.174 -31.782 -59.005  1.00  0.00     0.066 C 
HETATM    3  C3  UNK   900      38.216 -30.844 -60.252  1.00  0.00     0.087 C 
HETATM    4  C4  UNK   900      34.797 -31.600 -58.309  1.00  0.00     0.128 C 
HETATM    5  C5  UNK   900      36.158 -32.968 -59.969  1.00  0.00    -0.054 C 
HETATM    6  C6  UNK   900      34.319 -32.942 -57.744  1.00  0.00     0.040 C 
HETATM    7  C7  UNK   900      34.132 -33.988 -58.858  1.00  0.00     0.007 C 
HETATM    8  C8  UNK   900      35.882 -29.873 -60.753  1.00  0.00     0.028 C 
HETATM    9  C10 UNK   900      38.140 -32.081 -61.118  1.00  0.00     0.012 C 
HETATM   10  C11 UNK   900      35.229 -33.940 -59.892  1.00  0.00    -0.015 C 
HETATM   11  C12 UNK   900      37.197 -33.023 -60.981  1.00  0.00     0.006 C 
HETATM   12  C13 UNK   900      39.304 -31.073 -59.187  1.00  0.00     0.051 C 
HETATM   13  C15 UNK   900      34.019 -35.387 -58.250  1.00  0.00     0.014 C 
ENDROOT
BRANCH   1  14
HETATM   14  C9  UNK   900      36.962 -29.426 -58.604  1.00  0.00     0.141 C 
HETATM   15  O3  UNK   900      37.403 -29.705 -57.491  1.00  0.00    -0.297 OA
BRANCH  14  16
HETATM   16  C14 UNK   900      36.557 -28.017 -59.007  1.00  0.00     0.105 C 
BRANCH  16  17
HETATM   17  C16 UNK   900      37.738 -27.061 -59.091  1.00  0.00     0.174 C 
BRANCH  17  18
HETATM   18  O4  UNK   900      37.394 -25.796 -58.540  1.00  0.00    -0.396 OA
HETATM   19  C17 UNK   900      36.529 -25.932 -57.421  1.00  0.00     0.201 C 
ENDBRANCH  17  18
ENDBRANCH  16  17
ENDBRANCH  14  16
ENDBRANCH   1  14
BRANCH   3  20
HETATM   20  O1  UNK   900      38.664 -29.754 -61.069  1.00  0.00    -0.385 OA
HETATM   21  H20 UNK   900      37.884 -29.268 -61.389  1.00  0.00     0.211 HD
ENDBRANCH   3  20
BRANCH   4  22
HETATM   22  O2  UNK   900      33.806 -31.108 -59.203  1.00  0.00    -0.395 OA
HETATM   23  H21 UNK   900      33.042 -31.706 -59.157  1.00  0.00     0.210 HD
ENDBRANCH   4  22
TORSDOF 6
ENDMDL
MODEL 7
REMARK VINA RESULT:      -4.6     17.241     18.935
REMARK  6 active torsions:
REMARK  status: ('A' for Active; 'I' for Inactive)
REMARK    1  A    between atoms: O1_1  and  C3_7 
REMARK    2  A    between atoms: O2_2  and  C4_8 
REMARK    3  A    between atoms: O4_4  and  C16_20 
REMARK    4  A    between atoms: C1_5  and  C9_13 
REMARK    5  A    between atoms: C9_13  and  C14_18 
REMARK    6  A    between atoms: C14_18  and  C16_20 
ROOT
HETATM    1  C1  UNK   900      23.061 -30.996 -48.609  1.00  0.00     0.061 C 
HETATM    2  C2  UNK   900      24.015 -30.372 -49.693  1.00  0.00     0.066 C 
HETATM    3  C3  UNK   900      23.709 -32.322 -48.047  1.00  0.00     0.087 C 
HETATM    4  C4  UNK   900      23.496 -29.093 -50.406  1.00  0.00     0.128 C 
HETATM    5  C5  UNK   900      25.434 -30.176 -49.163  1.00  0.00    -0.054 C 
HETATM    6  C6  UNK   900      24.543 -28.595 -51.407  1.00  0.00     0.040 C 
HETATM    7  C7  UNK   900      25.861 -28.223 -50.706  1.00  0.00     0.007 C 
HETATM    8  C8  UNK   900      22.726 -30.014 -47.458  1.00  0.00     0.028 C 
HETATM    9  C10 UNK   900      25.141 -32.074 -47.631  1.00  0.00     0.012 C 
HETATM   10  C11 UNK   900      26.242 -29.201 -49.623  1.00  0.00    -0.015 C 
HETATM   11  C12 UNK   900      25.901 -31.093 -48.139  1.00  0.00     0.006 C 
HETATM   12  C13 UNK   900      23.697 -33.503 -49.035  1.00  0.00     0.051 C 
HETATM   13  C15 UNK   900      26.984 -28.088 -51.736  1.00  0.00     0.014 C 
ENDROOT
BRANCH   1  14
HETATM   14  C9  UNK   900      21.737 -31.347 -49.254  1.00  0.00     0.141 C 
HETATM   15  O3  UNK   900      21.692 -31.824 -50.387  1.00  0.00    -0.297 OA
BRANCH  14  16
HETATM   16  C14 UNK   900      20.495 -31.073 -48.420  1.00  0.00     0.105 C 
BRANCH  16  17
HETATM   17  C16 UNK   900      19.599 -32.294 -48.271  1.00  0.00     0.174 C 
BRANCH  17  18
HETATM   18  O4  UNK   900      20.347 -33.404 -47.790  1.00  0.00    -0.396 OA
HETATM   19  C17 UNK   900      19.574 -34.213 -46.915  1.00  0.00     0.201 C 
ENDBRANCH  17  18
ENDBRANCH  16  17
ENDBRANCH  14  16
ENDBRANCH   1  14
BRANCH   3  20
HETATM   20  O1  UNK   900      22.976 -32.747 -46.891  1.00  0.00    -0.385 OA
HETATM   21  H20 UNK   900      22.398 -32.018 -46.607  1.00  0.00     0.211 HD
ENDBRANCH   3  20
BRANCH   4  22
HETATM   22  O2  UNK   900      23.215 -28.044 -49.488  1.00  0.00    -0.395 OA
HETATM   23  H21 UNK   900      22.295 -27.765 -49.628  1.00  0.00     0.210 HD
ENDBRANCH   4  22
TORSDOF 6
ENDMDL
MODEL 8
REMARK VINA RESULT:      -4.5     16.881     18.859
REMARK  6 active torsions:
REMARK  status: ('A' for Active; 'I' for Inactive)
REMARK    1  A    between atoms: O1_1  and  C3_7 
REMARK    2  A    between atoms: O2_2  and  C4_8 
REMARK    3  A    between atoms: O4_4  and  C16_20 
REMARK    4  A    between atoms: C1_5  and  C9_13 
REMARK    5  A    between atoms: C9_13  and  C14_18 
REMARK    6  A    between atoms: C14_18  and  C16_20 
ROOT
HETATM    1  C1  UNK   900      23.032 -32.458 -48.442  1.00  0.00     0.061 C 
HETATM    2  C2  UNK   900      23.985 -31.231 -48.193  1.00  0.00     0.066 C 
HETATM    3  C3  UNK   900      21.722 -31.959 -49.167  1.00  0.00     0.087 C 
HETATM    4  C4  UNK   900      25.299 -31.531 -47.420  1.00  0.00     0.128 C 
HETATM    5  C5  UNK   900      24.262 -30.450 -49.477  1.00  0.00    -0.054 C 
HETATM    6  C6  UNK   900      26.126 -30.249 -47.283  1.00  0.00     0.040 C 
HETATM    7  C7  UNK   900      26.525 -29.686 -48.658  1.00  0.00     0.007 C 
HETATM    8  C8  UNK   900      23.708 -33.598 -49.245  1.00  0.00     0.028 C 
HETATM    9  C10 UNK   900      22.072 -31.115 -50.372  1.00  0.00     0.012 C 
HETATM   10  C11 UNK   900      25.410 -29.772 -49.670  1.00  0.00    -0.015 C 
HETATM   11  C12 UNK   900      23.230 -30.450 -50.498  1.00  0.00     0.006 C 
HETATM   12  C13 UNK   900      20.773 -31.140 -48.272  1.00  0.00     0.051 C 
HETATM   13  C15 UNK   900      27.016 -28.244 -48.513  1.00  0.00     0.014 C 
ENDROOT
BRANCH   1  14
HETATM   14  C9  UNK   900      22.642 -33.063 -47.110  1.00  0.00     0.141 C 
HETATM   15  O3  UNK   900      22.154 -34.190 -47.047  1.00  0.00    -0.297 OA
BRANCH  14  16
HETATM   16  C14 UNK   900      22.893 -32.197 -45.885  1.00  0.00     0.105 C 
BRANCH  16  17
HETATM   17  C16 UNK   900      21.892 -32.449 -44.766  1.00  0.00     0.174 C 
BRANCH  17  18
HETATM   18  O4  UNK   900      22.523 -33.102 -43.672  1.00  0.00    -0.396 OA
HETATM   19  C17 UNK   900      22.424 -32.334 -42.480  1.00  0.00     0.201 C 
ENDBRANCH  17  18
ENDBRANCH  16  17
ENDBRANCH  14  16
ENDBRANCH   1  14
BRANCH   3  20
HETATM   20  O1  UNK   900      20.977 -33.097 -49.621  1.00  0.00    -0.385 OA
HETATM   21  H20 UNK   900      21.385 -33.425 -50.441  1.00  0.00     0.211 HD
ENDBRANCH   3  20
BRANCH   4  22
HETATM   22  O2  UNK   900      26.094 -32.513 -48.075  1.00  0.00    -0.395 OA
HETATM   23  H21 UNK   900      25.681 -32.705 -48.933  1.00  0.00     0.210 HD
ENDBRANCH   4  22
TORSDOF 6
ENDMDL
MODEL 9
REMARK VINA RESULT:      -4.5     38.424     39.915
REMARK  6 active torsions:
REMARK  status: ('A' for Active; 'I' for Inactive)
REMARK    1  A    between atoms: O1_1  and  C3_7 
REMARK    2  A    between atoms: O2_2  and  C4_8 
REMARK    3  A    between atoms: O4_4  and  C16_20 
REMARK    4  A    between atoms: C1_5  and  C9_13 
REMARK    5  A    between atoms: C9_13  and  C14_18 
REMARK    6  A    between atoms: C14_18  and  C16_20 
ROOT
HETATM    1  C1  UNK   900       7.693 -53.480 -78.481  1.00  0.00     0.061 C 
HETATM    2  C2  UNK   900       6.342 -52.852 -78.988  1.00  0.00     0.066 C 
HETATM    3  C3  UNK   900       7.611 -55.052 -78.597  1.00  0.00     0.087 C 
HETATM    4  C4  UNK   900       6.221 -51.307 -78.877  1.00  0.00     0.128 C 
HETATM    5  C5  UNK   900       5.974 -53.339 -80.389  1.00  0.00    -0.054 C 
HETATM    6  C6  UNK   900       4.868 -50.851 -79.432  1.00  0.00     0.040 C 
HETATM    7  C7  UNK   900       4.719 -51.213 -80.921  1.00  0.00     0.007 C 
HETATM    8  C8  UNK   900       8.934 -52.934 -79.231  1.00  0.00     0.028 C 
HETATM    9  C10 UNK   900       7.150 -55.457 -79.979  1.00  0.00     0.012 C 
HETATM   10  C11 UNK   900       5.254 -52.586 -81.243  1.00  0.00    -0.015 C 
HETATM   11  C12 UNK   900       6.420 -54.664 -80.777  1.00  0.00     0.006 C 
HETATM   12  C13 UNK   900       6.677 -55.717 -77.569  1.00  0.00     0.051 C 
HETATM   13  C15 UNK   900       3.255 -51.087 -81.347  1.00  0.00     0.014 C 
ENDROOT
BRANCH   1  14
HETATM   14  C9  UNK   900       7.894 -53.116 -77.025  1.00  0.00     0.141 C 
HETATM   15  O3  UNK   900       6.996 -53.285 -76.202  1.00  0.00    -0.297 OA
BRANCH  14  16
HETATM   16  C14 UNK   900       9.254 -52.542 -76.663  1.00  0.00     0.105 C 
BRANCH  16  17
HETATM   17  C16 UNK   900       9.597 -52.711 -75.190  1.00  0.00     0.174 C 
BRANCH  17  18
HETATM   18  O4  UNK   900       9.969 -51.462 -74.619  1.00  0.00    -0.396 OA
HETATM   19  C17 UNK   900      10.043 -51.539 -73.202  1.00  0.00     0.201 C 
ENDBRANCH  17  18
ENDBRANCH  16  17
ENDBRANCH  14  16
ENDBRANCH   1  14
BRANCH   3  20
HETATM   20  O1  UNK   900       8.917 -55.604 -78.383  1.00  0.00    -0.385 OA
HETATM   21  H20 UNK   900       9.521 -54.882 -78.139  1.00  0.00     0.211 HD
ENDBRANCH   3  20
BRANCH   4  22
HETATM   22  O2  UNK   900       7.252 -50.636 -79.591  1.00  0.00    -0.395 OA
HETATM   23  H21 UNK   900       7.149 -50.851 -80.533  1.00  0.00     0.210 HD
ENDBRANCH   4  22
TORSDOF 6
ENDMDL
