MODEL 1
REMARK VINA RESULT:      -5.6      0.000      0.000
REMARK  2 active torsions:
REMARK  status: ('A' for Active; 'I' for Inactive)
REMARK    1  A    between atoms: O1_1  and  C1_4 
REMARK    2  A    between atoms: O2_2  and  C2_5 
ROOT
HETATM    1  O3  UNK   900      23.003 -41.699 -67.600  1.00  0.00    -0.293 OA
HETATM    2  C1  UNK   900      22.344 -38.829 -65.473  1.00  0.00     0.090 C 
HETATM    3  C2  UNK   900      21.503 -37.990 -66.450  1.00  0.00     0.176 C 
HETATM    4  C3  UNK   900      23.294 -39.764 -66.227  1.00  0.00     0.123 C 
HETATM    5  C4  UNK   900      23.132 -37.947 -64.497  1.00  0.00     0.049 C 
HETATM    6  C5  UNK   900      20.926 -38.813 -67.565  1.00  0.00     0.018 C 
HETATM    7  C6  UNK   900      22.573 -40.595 -67.271  1.00  0.00     0.158 C 
HETATM    8  C7  UNK   900      21.370 -40.021 -67.945  1.00  0.00    -0.017 C 
HETATM    9  C8  UNK   900      20.742 -40.819 -69.044  1.00  0.00     0.052 C 
ENDROOT
BRANCH   2  10
HETATM   10  O1  UNK   900      21.442 -39.623 -64.688  1.00  0.00    -0.387 OA
HETATM   11  H8  UNK   900      21.193 -40.403 -65.212  1.00  0.00     0.210 HD
ENDBRANCH   2  10
BRANCH   3  12
HETATM   12  O2  UNK   900      22.289 -36.950 -67.025  1.00  0.00    -0.389 OA
HETATM   13  H12 UNK   900      23.194 -37.035 -66.678  1.00  0.00     0.210 HD
ENDBRANCH   3  12
TORSDOF 2
ENDMDL
MODEL 2
REMARK VINA RESULT:      -5.3      2.381      4.308
REMARK  2 active torsions:
REMARK  status: ('A' for Active; 'I' for Inactive)
REMARK    1  A    between atoms: O1_1  and  C1_4 
REMARK    2  A    between atoms: O2_2  and  C2_5 
ROOT
HETATM    1  O3  UNK   900      23.240 -40.369 -66.321  1.00  0.00    -0.293 OA
HETATM    2  C1  UNK   900      21.667 -41.265 -69.471  1.00  0.00     0.090 C 
HETATM    3  C2  UNK   900      22.480 -40.363 -70.414  1.00  0.00     0.176 C 
HETATM    4  C3  UNK   900      21.623 -40.684 -68.054  1.00  0.00     0.123 C 
HETATM    5  C4  UNK   900      20.243 -41.497 -69.991  1.00  0.00     0.049 C 
HETATM    6  C5  UNK   900      23.779 -39.919 -69.806  1.00  0.00     0.018 C 
HETATM    7  C6  UNK   900      23.006 -40.351 -67.529  1.00  0.00     0.158 C 
HETATM    8  C7  UNK   900      24.064 -39.931 -68.495  1.00  0.00    -0.017 C 
HETATM    9  C8  UNK   900      25.388 -39.509 -67.938  1.00  0.00     0.052 C 
ENDROOT
BRANCH   2  10
HETATM   10  O1  UNK   900      22.312 -42.546 -69.424  1.00  0.00    -0.387 OA
HETATM   11  H8  UNK   900      22.245 -42.885 -68.516  1.00  0.00     0.210 HD
ENDBRANCH   2  10
BRANCH   3  12
HETATM   12  O2  UNK   900      21.734 -39.201 -70.767  1.00  0.00    -0.389 OA
HETATM   13  H12 UNK   900      22.313 -38.627 -71.299  1.00  0.00     0.210 HD
ENDBRANCH   3  12
TORSDOF 2
ENDMDL
MODEL 3
REMARK VINA RESULT:      -5.2     12.592     13.644
REMARK  2 active torsions:
REMARK  status: ('A' for Active; 'I' for Inactive)
REMARK    1  A    between atoms: O1_1  and  C1_4 
REMARK    2  A    between atoms: O2_2  and  C2_5 
ROOT
HETATM    1  O3  UNK   900      31.442 -50.230 -63.973  1.00  0.00    -0.293 OA
HETATM    2  C1  UNK   900      30.002 -49.380 -60.748  1.00  0.00     0.090 C 
HETATM    3  C2  UNK   900      30.029 -47.847 -60.866  1.00  0.00     0.176 C 
HETATM    4  C3  UNK   900      31.089 -50.018 -61.618  1.00  0.00     0.123 C 
HETATM    5  C4  UNK   900      30.151 -49.842 -59.293  1.00  0.00     0.049 C 
HETATM    6  C5  UNK   900      30.139 -47.383 -62.289  1.00  0.00     0.018 C 
HETATM    7  C6  UNK   900      31.042 -49.522 -63.050  1.00  0.00     0.158 C 
HETATM    8  C7  UNK   900      30.568 -48.131 -63.317  1.00  0.00    -0.017 C 
HETATM    9  C8  UNK   900      30.630 -47.633 -64.727  1.00  0.00     0.052 C 
ENDROOT
BRANCH   2  10
HETATM   10  O1  UNK   900      28.720 -49.833 -61.205  1.00  0.00    -0.387 OA
HETATM   11  H8  UNK   900      28.283 -49.094 -61.659  1.00  0.00     0.210 HD
ENDBRANCH   2  10
BRANCH   3  12
HETATM   12  O2  UNK   900      31.125 -47.304 -60.135  1.00  0.00    -0.389 OA
HETATM   13  H12 UNK   900      31.472 -48.005 -59.555  1.00  0.00     0.210 HD
ENDBRANCH   3  12
TORSDOF 2
ENDMDL
MODEL 4
REMARK VINA RESULT:      -5.0      3.126      5.099
REMARK  2 active torsions:
REMARK  status: ('A' for Active; 'I' for Inactive)
REMARK    1  A    between atoms: O1_1  and  C1_4 
REMARK    2  A    between atoms: O2_2  and  C2_5 
ROOT
HETATM    1  O3  UNK   900      23.436 -35.063 -65.412  1.00  0.00    -0.293 OA
HETATM    2  C1  UNK   900      21.503 -36.951 -67.841  1.00  0.00     0.090 C 
HETATM    3  C2  UNK   900      20.979 -35.784 -68.695  1.00  0.00     0.176 C 
HETATM    4  C3  UNK   900      21.802 -36.495 -66.410  1.00  0.00     0.123 C 
HETATM    5  C4  UNK   900      20.525 -38.131 -67.828  1.00  0.00     0.049 C 
HETATM    6  C5  UNK   900      21.791 -34.533 -68.519  1.00  0.00     0.018 C 
HETATM    7  C6  UNK   900      22.695 -35.270 -66.372  1.00  0.00     0.158 C 
HETATM    8  C7  UNK   900      22.610 -34.280 -67.487  1.00  0.00    -0.017 C 
HETATM    9  C8  UNK   900      23.426 -33.031 -67.372  1.00  0.00     0.052 C 
ENDROOT
BRANCH   2  10
HETATM   10  O1  UNK   900      22.720 -37.419 -68.440  1.00  0.00    -0.387 OA
HETATM   11  H8  UNK   900      22.895 -36.880 -69.229  1.00  0.00     0.210 HD
ENDBRANCH   2  10
BRANCH   3  12
HETATM   12  O2  UNK   900      19.626 -35.485 -68.362  1.00  0.00    -0.389 OA
HETATM   13  H12 UNK   900      19.053 -36.040 -68.919  1.00  0.00     0.210 HD
ENDBRANCH   3  12
TORSDOF 2
ENDMDL
MODEL 5
REMARK VINA RESULT:      -4.6     12.908     14.454
REMARK  2 active torsions:
REMARK  status: ('A' for Active; 'I' for Inactive)
REMARK    1  A    between atoms: O1_1  and  C1_4 
REMARK    2  A    between atoms: O2_2  and  C2_5 
ROOT
HETATM    1  O3  UNK   900      29.854 -46.533 -62.159  1.00  0.00    -0.293 OA
HETATM    2  C1  UNK   900      31.027 -49.156 -59.937  1.00  0.00     0.090 C 
HETATM    3  C2  UNK   900      32.254 -48.442 -59.344  1.00  0.00     0.176 C 
HETATM    4  C3  UNK   900      30.693 -48.612 -61.329  1.00  0.00     0.123 C 
HETATM    5  C4  UNK   900      31.227 -50.676 -59.996  1.00  0.00     0.049 C 
HETATM    6  C5  UNK   900      32.186 -46.952 -59.508  1.00  0.00     0.018 C 
HETATM    7  C6  UNK   900      30.576 -47.100 -61.341  1.00  0.00     0.158 C 
HETATM    8  C7  UNK   900      31.407 -46.305 -60.388  1.00  0.00    -0.017 C 
HETATM    9  C8  UNK   900      31.349 -44.813 -60.493  1.00  0.00     0.052 C 
ENDROOT
BRANCH   2  10
HETATM   10  O1  UNK   900      29.914 -48.912 -59.066  1.00  0.00    -0.387 OA
HETATM   11  H8  UNK   900      29.239 -49.588 -59.241  1.00  0.00     0.210 HD
ENDBRANCH   2  10
BRANCH   3  12
HETATM   12  O2  UNK   900      33.453 -48.903 -59.962  1.00  0.00    -0.389 OA
HETATM   13  H12 UNK   900      33.244 -49.726 -60.438  1.00  0.00     0.210 HD
ENDBRANCH   3  12
TORSDOF 2
ENDMDL
MODEL 6
REMARK VINA RESULT:      -4.4     34.969     35.789
REMARK  2 active torsions:
REMARK  status: ('A' for Active; 'I' for Inactive)
REMARK    1  A    between atoms: O1_1  and  C1_4 
REMARK    2  A    between atoms: O2_2  and  C2_5 
ROOT
HETATM    1  O3  UNK   900       5.264 -66.182 -47.844  1.00  0.00    -0.293 OA
HETATM    2  C1  UNK   900       7.513 -66.718 -50.646  1.00  0.00     0.090 C 
HETATM    3  C2  UNK   900       8.806 -67.014 -49.867  1.00  0.00     0.176 C 
HETATM    4  C3  UNK   900       6.562 -65.844 -49.823  1.00  0.00     0.123 C 
HETATM    5  C4  UNK   900       7.802 -66.057 -51.999  1.00  0.00     0.049 C 
HETATM    6  C5  UNK   900       8.540 -67.424 -48.448  1.00  0.00     0.018 C 
HETATM    7  C6  UNK   900       6.317 -66.410 -48.437  1.00  0.00     0.158 C 
HETATM    8  C7  UNK   900       7.403 -67.193 -47.775  1.00  0.00    -0.017 C 
HETATM    9  C8  UNK   900       7.172 -67.650 -46.369  1.00  0.00     0.052 C 
ENDROOT
BRANCH   2  10
HETATM   10  O1  UNK   900       6.869 -67.970 -50.918  1.00  0.00    -0.387 OA
HETATM   11  H8  UNK   900       7.244 -68.639 -50.322  1.00  0.00     0.210 HD
ENDBRANCH   2  10
BRANCH   3  12
HETATM   12  O2  UNK   900       9.655 -65.870 -49.848  1.00  0.00    -0.389 OA
HETATM   13  H12 UNK   900      10.379 -66.027 -50.479  1.00  0.00     0.210 HD
ENDBRANCH   3  12
TORSDOF 2
ENDMDL
MODEL 7
REMARK VINA RESULT:      -4.4     16.137     17.060
REMARK  2 active torsions:
REMARK  status: ('A' for Active; 'I' for Inactive)
REMARK    1  A    between atoms: O1_1  and  C1_4 
REMARK    2  A    between atoms: O2_2  and  C2_5 
ROOT
HETATM    1  O3  UNK   900      33.591 -36.892 -55.863  1.00  0.00    -0.293 OA
HETATM    2  C1  UNK   900      35.591 -39.912 -55.585  1.00  0.00     0.090 C 
HETATM    3  C2  UNK   900      36.153 -39.965 -57.015  1.00  0.00     0.176 C 
HETATM    4  C3  UNK   900      34.254 -39.167 -55.545  1.00  0.00     0.123 C 
HETATM    5  C4  UNK   900      35.435 -41.313 -54.983  1.00  0.00     0.049 C 
HETATM    6  C5  UNK   900      36.078 -38.637 -57.711  1.00  0.00     0.018 C 
HETATM    7  C6  UNK   900      34.334 -37.808 -56.213  1.00  0.00     0.158 C 
HETATM    8  C7  UNK   900      35.282 -37.618 -57.352  1.00  0.00    -0.017 C 
HETATM    9  C8  UNK   900      35.265 -36.299 -58.058  1.00  0.00     0.052 C 
ENDROOT
BRANCH   2  10
HETATM   10  O1  UNK   900      36.537 -39.206 -54.768  1.00  0.00    -0.387 OA
HETATM   11  H8  UNK   900      36.084 -38.926 -53.955  1.00  0.00     0.210 HD
ENDBRANCH   2  10
BRANCH   3  12
HETATM   12  O2  UNK   900      35.443 -40.919 -57.800  1.00  0.00    -0.389 OA
HETATM   13  H12 UNK   900      34.796 -40.435 -58.343  1.00  0.00     0.210 HD
ENDBRANCH   3  12
TORSDOF 2
ENDMDL
MODEL 8
REMARK VINA RESULT:      -4.4     34.653     35.447
REMARK  2 active torsions:
REMARK  status: ('A' for Active; 'I' for Inactive)
REMARK    1  A    between atoms: O1_1  and  C1_4 
REMARK    2  A    between atoms: O2_2  and  C2_5 
ROOT
HETATM    1  O3  UNK   900       5.144 -66.678 -49.199  1.00  0.00    -0.293 OA
HETATM    2  C1  UNK   900       8.680 -67.429 -49.565  1.00  0.00     0.090 C 
HETATM    3  C2  UNK   900       8.785 -67.368 -51.098  1.00  0.00     0.176 C 
HETATM    4  C3  UNK   900       7.259 -67.792 -49.124  1.00  0.00     0.123 C 
HETATM    5  C4  UNK   900       9.688 -68.416 -48.964  1.00  0.00     0.049 C 
HETATM    6  C5  UNK   900       7.649 -66.608 -51.721  1.00  0.00     0.018 C 
HETATM    7  C6  UNK   900       6.214 -66.899 -49.766  1.00  0.00     0.158 C 
HETATM    8  C7  UNK   900       6.474 -66.349 -51.129  1.00  0.00    -0.017 C 
HETATM    9  C8  UNK   900       5.383 -65.558 -51.780  1.00  0.00     0.052 C 
ENDROOT
BRANCH   2  10
HETATM   10  O1  UNK   900       9.005 -66.130 -49.051  1.00  0.00    -0.387 OA
HETATM   11  H8  UNK   900       8.535 -66.011 -48.209  1.00  0.00     0.210 HD
ENDBRANCH   2  10
BRANCH   3  12
HETATM   12  O2  UNK   900       8.800 -68.680 -51.654  1.00  0.00    -0.389 OA
HETATM   13  H12 UNK   900       9.512 -68.714 -52.316  1.00  0.00     0.210 HD
ENDBRANCH   3  12
TORSDOF 2
ENDMDL
MODEL 9
REMARK VINA RESULT:      -4.1     12.019     13.535
REMARK  2 active torsions:
REMARK  status: ('A' for Active; 'I' for Inactive)
REMARK    1  A    between atoms: O1_1  and  C1_4 
REMARK    2  A    between atoms: O2_2  and  C2_5 
ROOT
HETATM    1  O3  UNK   900      33.083 -46.785 -64.309  1.00  0.00    -0.293 OA
HETATM    2  C1  UNK   900      31.393 -49.555 -62.677  1.00  0.00     0.090 C 
HETATM    3  C2  UNK   900      29.979 -48.956 -62.582  1.00  0.00     0.176 C 
HETATM    4  C3  UNK   900      32.456 -48.454 -62.717  1.00  0.00     0.123 C 
HETATM    5  C4  UNK   900      31.678 -50.526 -61.525  1.00  0.00     0.049 C 
HETATM    6  C5  UNK   900      29.770 -47.823 -63.544  1.00  0.00     0.018 C 
HETATM    7  C6  UNK   900      32.167 -47.416 -63.783  1.00  0.00     0.158 C 
HETATM    8  C7  UNK   900      30.747 -47.119 -64.136  1.00  0.00    -0.017 C 
HETATM    9  C8  UNK   900      30.488 -46.018 -65.116  1.00  0.00     0.052 C 
ENDROOT
BRANCH   2  10
HETATM   10  O1  UNK   900      31.466 -50.312 -63.894  1.00  0.00    -0.387 OA
HETATM   11  H8  UNK   900      30.606 -50.250 -64.341  1.00  0.00     0.210 HD
ENDBRANCH   2  10
BRANCH   3  12
HETATM   12  O2  UNK   900      29.725 -48.474 -61.265  1.00  0.00    -0.389 OA
HETATM   13  H12 UNK   900      30.470 -48.743 -60.701  1.00  0.00     0.210 HD
ENDBRANCH   3  12
TORSDOF 2
ENDMDL
