MODEL 1
REMARK VINA RESULT:      -5.9      0.000      0.000
REMARK  15 active torsions:
REMARK  status: ('A' for Active; 'I' for Inactive)
REMARK    1  A    between atoms: O1_1  and  C4_13 
REMARK    2  A    between atoms: O1_1  and  C6_15 
REMARK    3  A    between atoms: O3_3  and  C12_21 
REMARK    4  A    between atoms: O6_6  and  C21_30 
REMARK    5  A    between atoms: N1_8  and  C1_10 
REMARK       I    between atoms: N1_8  and  C11_20 
REMARK    6  A    between atoms: N2_9  and  C8_17 
REMARK       I    between atoms: N2_9  and  C10_19 
REMARK    7  A    between atoms: C1_10  and  C2_11 
REMARK    8  A    between atoms: C1_10  and  C6_15 
REMARK    9  A    between atoms: C2_11  and  C3_12 
REMARK   10  A    between atoms: C4_13  and  C5_14 
REMARK   11  A    between atoms: C4_13  and  C10_19 
REMARK   12  A    between atoms: C8_17  and  C9_18 
REMARK   13  A    between atoms: C8_17  and  C21_30 
REMARK   14  A    between atoms: C11_20  and  C12_21 
REMARK   15  A    between atoms: C12_21  and  C13_22 
ROOT
HETATM    1  O1  UNK   900      34.223 -47.706 -65.367  1.00  0.00    -0.304 OA
ENDROOT
BRANCH   1   2
HETATM    2  C4  UNK   900      34.409 -47.939 -63.975  1.00  0.00     0.227 C 
BRANCH   2   3
HETATM    3  C5  UNK   900      35.680 -48.788 -63.763  1.00  0.00     0.016 C 
HETATM    4  C16 UNK   900      36.933 -47.933 -63.978  1.00  0.00     0.012 C 
HETATM    5  C17 UNK   900      35.738 -49.429 -62.372  1.00  0.00     0.012 C 
ENDBRANCH   2   3
BRANCH   2   6
HETATM    6  C10 UNK   900      33.158 -48.631 -63.430  1.00  0.00     0.250 C 
HETATM    7  O4  UNK   900      32.715 -49.627 -64.011  1.00  0.00    -0.270 OA
HETATM    8  N2  UNK   900      32.570 -48.097 -62.279  1.00  0.00    -0.339 N 
HETATM    9  C20 UNK   900      33.101 -46.918 -61.598  1.00  0.00     0.153 C 
BRANCH   8  10
HETATM   10  C8  UNK   900      31.379 -48.672 -61.665  1.00  0.00     0.188 C 
BRANCH  10  11
HETATM   11  C9  UNK   900      31.664 -49.044 -60.194  1.00  0.00     0.011 C 
HETATM   12  C18 UNK   900      30.415 -49.503 -59.435  1.00  0.00     0.012 C 
HETATM   13  C19 UNK   900      32.775 -50.091 -60.066  1.00  0.00     0.012 C 
ENDBRANCH  10  11
BRANCH  10  14
HETATM   14  C21 UNK   900      30.171 -47.761 -61.863  1.00  0.00     0.164 C 
HETATM   15  O7  UNK   900      29.854 -46.878 -61.074  1.00  0.00    -0.648 OA
BRANCH  14  16
HETATM   16  O6  UNK   900      29.432 -48.035 -62.965  1.00  0.00    -0.775 OA
HETATM   17  H42 UNK   900      28.486 -47.806 -62.838  1.00  0.00     0.167 HD
ENDBRANCH  14  16
ENDBRANCH  10  14
ENDBRANCH   8  10
ENDBRANCH   2   6
ENDBRANCH   1   2
BRANCH   1  18
HETATM   18  C6  UNK   900      34.392 -46.417 -65.788  1.00  0.00     0.283 C 
HETATM   19  O2  UNK   900      35.278 -46.040 -66.549  1.00  0.00    -0.263 OA
BRANCH  18  20
HETATM   20  C1  UNK   900      33.345 -45.471 -65.210  1.00  0.00     0.190 C 
BRANCH  20  21
HETATM   21  N1  UNK   900      32.150 -45.436 -66.016  1.00  0.00    -0.340 N 
HETATM   22  C11 UNK   900      30.864 -45.540 -65.459  1.00  0.00     0.249 C 
HETATM   23  O5  UNK   900      30.677 -45.668 -64.244  1.00  0.00    -0.270 OA
HETATM   24  C14 UNK   900      32.370 -45.285 -67.460  1.00  0.00     0.153 C 
BRANCH  22  25
HETATM   25  C12 UNK   900      29.660 -45.497 -66.402  1.00  0.00     0.213 C 
BRANCH  25  26
HETATM   26  O3  UNK   900      28.670 -44.648 -65.831  1.00  0.00    -0.386 OA
HETATM   27  H41 UNK   900      28.253 -45.112 -65.085  1.00  0.00     0.210 HD
ENDBRANCH  25  26
BRANCH  25  28
HETATM   28  C13 UNK   900      29.057 -46.898 -66.639  1.00  0.00     0.015 C 
HETATM   29  C22 UNK   900      29.128 -47.331 -68.108  1.00  0.00     0.012 C 
HETATM   30  C23 UNK   900      27.599 -46.938 -66.169  1.00  0.00     0.012 C 
ENDBRANCH  25  28
ENDBRANCH  22  25
ENDBRANCH  20  21
BRANCH  20  31
HETATM   31  C2  UNK   900      33.931 -44.057 -64.979  1.00  0.00     0.014 C 
HETATM   32  C7  UNK   900      34.811 -43.997 -63.722  1.00  0.00     0.012 C 
BRANCH  31  33
HETATM   33  C3  UNK   900      32.802 -43.004 -64.935  1.00  0.00     0.002 C 
HETATM   34  C15 UNK   900      32.579 -42.407 -63.552  1.00  0.00     0.005 C 
ENDBRANCH  31  33
ENDBRANCH  20  31
ENDBRANCH  18  20
ENDBRANCH   1  18
TORSDOF 15
ENDMDL
MODEL 2
REMARK VINA RESULT:      -5.8      2.067      7.128
REMARK  15 active torsions:
REMARK  status: ('A' for Active; 'I' for Inactive)
REMARK    1  A    between atoms: O1_1  and  C4_13 
REMARK    2  A    between atoms: O1_1  and  C6_15 
REMARK    3  A    between atoms: O3_3  and  C12_21 
REMARK    4  A    between atoms: O6_6  and  C21_30 
REMARK    5  A    between atoms: N1_8  and  C1_10 
REMARK       I    between atoms: N1_8  and  C11_20 
REMARK    6  A    between atoms: N2_9  and  C8_17 
REMARK       I    between atoms: N2_9  and  C10_19 
REMARK    7  A    between atoms: C1_10  and  C2_11 
REMARK    8  A    between atoms: C1_10  and  C6_15 
REMARK    9  A    between atoms: C2_11  and  C3_12 
REMARK   10  A    between atoms: C4_13  and  C5_14 
REMARK   11  A    between atoms: C4_13  and  C10_19 
REMARK   12  A    between atoms: C8_17  and  C9_18 
REMARK   13  A    between atoms: C8_17  and  C21_30 
REMARK   14  A    between atoms: C11_20  and  C12_21 
REMARK   15  A    between atoms: C12_21  and  C13_22 
ROOT
HETATM    1  O1  UNK   900      32.101 -48.110 -64.891  1.00  0.00    -0.304 OA
ENDROOT
BRANCH   1   2
HETATM    2  C4  UNK   900      31.422 -46.860 -64.928  1.00  0.00     0.227 C 
BRANCH   2   3
HETATM    3  C5  UNK   900      29.961 -47.083 -65.373  1.00  0.00     0.016 C 
HETATM    4  C16 UNK   900      29.030 -46.096 -64.660  1.00  0.00     0.012 C 
HETATM    5  C17 UNK   900      29.777 -46.945 -66.889  1.00  0.00     0.012 C 
ENDBRANCH   2   3
BRANCH   2   6
HETATM    6  C10 UNK   900      32.176 -45.928 -65.878  1.00  0.00     0.250 C 
HETATM    7  O4  UNK   900      32.576 -46.364 -66.963  1.00  0.00    -0.270 OA
HETATM    8  N2  UNK   900      32.376 -44.606 -65.469  1.00  0.00    -0.339 N 
HETATM    9  C20 UNK   900      31.900 -44.099 -64.183  1.00  0.00     0.153 C 
BRANCH   8  10
HETATM   10  C8  UNK   900      33.077 -43.626 -66.290  1.00  0.00     0.188 C 
BRANCH  10  11
HETATM   11  C9  UNK   900      32.507 -42.214 -66.037  1.00  0.00     0.011 C 
HETATM   12  C18 UNK   900      33.525 -41.098 -66.291  1.00  0.00     0.012 C 
HETATM   13  C19 UNK   900      31.226 -41.954 -66.837  1.00  0.00     0.012 C 
ENDBRANCH  10  11
BRANCH  10  14
HETATM   14  C21 UNK   900      34.587 -43.739 -66.103  1.00  0.00     0.164 C 
HETATM   15  O7  UNK   900      35.138 -43.703 -65.008  1.00  0.00    -0.648 OA
BRANCH  14  16
HETATM   16  O6  UNK   900      35.293 -43.832 -67.256  1.00  0.00    -0.775 OA
HETATM   17  H42 UNK   900      34.731 -43.671 -68.044  1.00  0.00     0.167 HD
ENDBRANCH  14  16
ENDBRANCH  10  14
ENDBRANCH   8  10
ENDBRANCH   2   6
ENDBRANCH   1   2
BRANCH   1  18
HETATM   18  C6  UNK   900      31.827 -48.911 -63.819  1.00  0.00     0.283 C 
HETATM   19  O2  UNK   900      31.569 -50.109 -63.887  1.00  0.00    -0.263 OA
BRANCH  18  20
HETATM   20  C1  UNK   900      31.876 -48.154 -62.496  1.00  0.00     0.190 C 
BRANCH  20  21
HETATM   21  N1  UNK   900      33.141 -48.328 -61.825  1.00  0.00    -0.340 N 
HETATM   22  C11 UNK   900      34.175 -47.379 -61.911  1.00  0.00     0.249 C 
HETATM   23  O5  UNK   900      34.064 -46.336 -62.565  1.00  0.00    -0.270 OA
HETATM   24  C14 UNK   900      33.275 -49.567 -61.048  1.00  0.00     0.153 C 
BRANCH  22  25
HETATM   25  C12 UNK   900      35.481 -47.660 -61.165  1.00  0.00     0.213 C 
BRANCH  25  26
HETATM   26  O3  UNK   900      35.889 -46.468 -60.504  1.00  0.00    -0.386 OA
HETATM   27  H41 UNK   900      35.143 -46.130 -59.980  1.00  0.00     0.210 HD
ENDBRANCH  25  26
BRANCH  25  28
HETATM   28  C13 UNK   900      36.603 -48.128 -62.117  1.00  0.00     0.015 C 
HETATM   29  C22 UNK   900      37.213 -49.470 -61.697  1.00  0.00     0.012 C 
HETATM   30  C23 UNK   900      37.710 -47.071 -62.194  1.00  0.00     0.012 C 
ENDBRANCH  25  28
ENDBRANCH  22  25
ENDBRANCH  20  21
BRANCH  20  31
HETATM   31  C2  UNK   900      30.681 -48.529 -61.587  1.00  0.00     0.014 C 
HETATM   32  C7  UNK   900      29.458 -48.977 -62.400  1.00  0.00     0.012 C 
BRANCH  31  33
HETATM   33  C3  UNK   900      30.337 -47.362 -60.636  1.00  0.00     0.002 C 
HETATM   34  C15 UNK   900      30.451 -45.991 -61.290  1.00  0.00     0.005 C 
ENDBRANCH  31  33
ENDBRANCH  20  31
ENDBRANCH  18  20
ENDBRANCH   1  18
TORSDOF 15
ENDMDL
MODEL 3
REMARK VINA RESULT:      -5.8      1.870      4.108
REMARK  15 active torsions:
REMARK  status: ('A' for Active; 'I' for Inactive)
REMARK    1  A    between atoms: O1_1  and  C4_13 
REMARK    2  A    between atoms: O1_1  and  C6_15 
REMARK    3  A    between atoms: O3_3  and  C12_21 
REMARK    4  A    between atoms: O6_6  and  C21_30 
REMARK    5  A    between atoms: N1_8  and  C1_10 
REMARK       I    between atoms: N1_8  and  C11_20 
REMARK    6  A    between atoms: N2_9  and  C8_17 
REMARK       I    between atoms: N2_9  and  C10_19 
REMARK    7  A    between atoms: C1_10  and  C2_11 
REMARK    8  A    between atoms: C1_10  and  C6_15 
REMARK    9  A    between atoms: C2_11  and  C3_12 
REMARK   10  A    between atoms: C4_13  and  C5_14 
REMARK   11  A    between atoms: C4_13  and  C10_19 
REMARK   12  A    between atoms: C8_17  and  C9_18 
REMARK   13  A    between atoms: C8_17  and  C21_30 
REMARK   14  A    between atoms: C11_20  and  C12_21 
REMARK   15  A    between atoms: C12_21  and  C13_22 
ROOT
HETATM    1  O1  UNK   900      32.754 -47.584 -64.777  1.00  0.00    -0.304 OA
ENDROOT
BRANCH   1   2
HETATM    2  C4  UNK   900      32.948 -47.369 -63.383  1.00  0.00     0.227 C 
BRANCH   2   3
HETATM    3  C5  UNK   900      34.356 -46.781 -63.145  1.00  0.00     0.016 C 
HETATM    4  C16 UNK   900      34.759 -45.876 -64.314  1.00  0.00     0.012 C 
HETATM    5  C17 UNK   900      34.452 -45.989 -61.836  1.00  0.00     0.012 C 
ENDBRANCH   2   3
BRANCH   2   6
HETATM    6  C10 UNK   900      32.751 -48.701 -62.656  1.00  0.00     0.250 C 
HETATM    7  O4  UNK   900      33.392 -49.691 -63.024  1.00  0.00    -0.270 OA
HETATM    8  N2  UNK   900      31.845 -48.733 -61.592  1.00  0.00    -0.339 N 
HETATM    9  C20 UNK   900      31.091 -47.556 -61.165  1.00  0.00     0.153 C 
BRANCH   8  10
HETATM   10  C8  UNK   900      31.577 -49.942 -60.823  1.00  0.00     0.188 C 
BRANCH  10  11
HETATM   11  C9  UNK   900      32.879 -50.460 -60.174  1.00  0.00     0.011 C 
HETATM   12  C18 UNK   900      33.542 -49.434 -59.250  1.00  0.00     0.012 C 
HETATM   13  C19 UNK   900      32.669 -51.783 -59.432  1.00  0.00     0.012 C 
ENDBRANCH  10  11
BRANCH  10  14
HETATM   14  C21 UNK   900      30.429 -49.720 -59.843  1.00  0.00     0.164 C 
HETATM   15  O7  UNK   900      30.585 -49.300 -58.702  1.00  0.00    -0.648 OA
BRANCH  14  16
HETATM   16  O6  UNK   900      29.209 -50.074 -60.314  1.00  0.00    -0.775 OA
HETATM   17  H42 UNK   900      29.273 -50.593 -61.144  1.00  0.00     0.167 HD
ENDBRANCH  14  16
ENDBRANCH  10  14
ENDBRANCH   8  10
ENDBRANCH   2   6
ENDBRANCH   1   2
BRANCH   1  18
HETATM   18  C6  UNK   900      31.463 -47.535 -65.218  1.00  0.00     0.283 C 
HETATM   19  O2  UNK   900      30.525 -48.138 -64.706  1.00  0.00    -0.263 OA
BRANCH  18  20
HETATM   20  C1  UNK   900      31.295 -46.634 -66.437  1.00  0.00     0.190 C 
BRANCH  20  21
HETATM   21  N1  UNK   900      31.359 -45.237 -66.083  1.00  0.00    -0.340 N 
HETATM   22  C11 UNK   900      32.003 -44.285 -66.894  1.00  0.00     0.249 C 
HETATM   23  O5  UNK   900      32.554 -44.586 -67.959  1.00  0.00    -0.270 OA
HETATM   24  C14 UNK   900      30.706 -44.878 -64.818  1.00  0.00     0.153 C 
BRANCH  22  25
HETATM   25  C12 UNK   900      32.020 -42.828 -66.427  1.00  0.00     0.213 C 
BRANCH  25  26
HETATM   26  O3  UNK   900      31.683 -41.997 -67.532  1.00  0.00    -0.386 OA
HETATM   27  H41 UNK   900      32.251 -42.233 -68.285  1.00  0.00     0.210 HD
ENDBRANCH  25  26
BRANCH  25  28
HETATM   28  C13 UNK   900      33.399 -42.411 -65.874  1.00  0.00     0.015 C 
HETATM   29  C22 UNK   900      33.442 -42.396 -64.342  1.00  0.00     0.012 C 
HETATM   30  C23 UNK   900      33.790 -41.028 -66.405  1.00  0.00     0.012 C 
ENDBRANCH  25  28
ENDBRANCH  22  25
ENDBRANCH  20  21
BRANCH  20  31
HETATM   31  C2  UNK   900      30.003 -46.977 -67.217  1.00  0.00     0.014 C 
HETATM   32  C7  UNK   900      30.217 -46.924 -68.736  1.00  0.00     0.012 C 
BRANCH  31  33
HETATM   33  C3  UNK   900      28.843 -46.059 -66.772  1.00  0.00     0.002 C 
HETATM   34  C15 UNK   900      27.609 -46.820 -66.307  1.00  0.00     0.005 C 
ENDBRANCH  31  33
ENDBRANCH  20  31
ENDBRANCH  18  20
ENDBRANCH   1  18
TORSDOF 15
ENDMDL
MODEL 4
REMARK VINA RESULT:      -5.6      2.463      4.339
REMARK  15 active torsions:
REMARK  status: ('A' for Active; 'I' for Inactive)
REMARK    1  A    between atoms: O1_1  and  C4_13 
REMARK    2  A    between atoms: O1_1  and  C6_15 
REMARK    3  A    between atoms: O3_3  and  C12_21 
REMARK    4  A    between atoms: O6_6  and  C21_30 
REMARK    5  A    between atoms: N1_8  and  C1_10 
REMARK       I    between atoms: N1_8  and  C11_20 
REMARK    6  A    between atoms: N2_9  and  C8_17 
REMARK       I    between atoms: N2_9  and  C10_19 
REMARK    7  A    between atoms: C1_10  and  C2_11 
REMARK    8  A    between atoms: C1_10  and  C6_15 
REMARK    9  A    between atoms: C2_11  and  C3_12 
REMARK   10  A    between atoms: C4_13  and  C5_14 
REMARK   11  A    between atoms: C4_13  and  C10_19 
REMARK   12  A    between atoms: C8_17  and  C9_18 
REMARK   13  A    between atoms: C8_17  and  C21_30 
REMARK   14  A    between atoms: C11_20  and  C12_21 
REMARK   15  A    between atoms: C12_21  and  C13_22 
ROOT
HETATM    1  O1  UNK   900      34.571 -47.024 -62.508  1.00  0.00    -0.304 OA
ENDROOT
BRANCH   1   2
HETATM    2  C4  UNK   900      35.021 -47.926 -61.502  1.00  0.00     0.227 C 
BRANCH   2   3
HETATM    3  C5  UNK   900      36.520 -48.224 -61.716  1.00  0.00     0.016 C 
HETATM    4  C16 UNK   900      37.273 -46.939 -62.076  1.00  0.00     0.012 C 
HETATM    5  C17 UNK   900      37.176 -48.866 -60.487  1.00  0.00     0.012 C 
ENDBRANCH   2   3
BRANCH   2   6
HETATM    6  C10 UNK   900      34.167 -49.194 -61.572  1.00  0.00     0.250 C 
HETATM    7  O4  UNK   900      34.065 -49.796 -62.646  1.00  0.00    -0.270 OA
HETATM    8  N2  UNK   900      33.537 -49.618 -60.399  1.00  0.00    -0.339 N 
HETATM    9  C20 UNK   900      33.664 -48.899 -59.132  1.00  0.00     0.153 C 
BRANCH   8  10
HETATM   10  C8  UNK   900      32.703 -50.813 -60.341  1.00  0.00     0.188 C 
BRANCH  10  11
HETATM   11  C9  UNK   900      33.279 -51.817 -59.320  1.00  0.00     0.011 C 
HETATM   12  C18 UNK   900      32.385 -53.042 -59.109  1.00  0.00     0.012 C 
HETATM   13  C19 UNK   900      34.702 -52.256 -59.679  1.00  0.00     0.012 C 
ENDBRANCH  10  11
BRANCH  10  14
HETATM   14  C21 UNK   900      31.241 -50.444 -60.107  1.00  0.00     0.164 C 
HETATM   15  O7  UNK   900      30.762 -50.249 -58.995  1.00  0.00    -0.648 OA
BRANCH  14  16
HETATM   16  O6  UNK   900      30.485 -50.395 -61.230  1.00  0.00    -0.775 OA
HETATM   17  H42 UNK   900      30.049 -49.524 -61.341  1.00  0.00     0.167 HD
ENDBRANCH  14  16
ENDBRANCH  10  14
ENDBRANCH   8  10
ENDBRANCH   2   6
ENDBRANCH   1   2
BRANCH   1  18
HETATM   18  C6  UNK   900      33.724 -46.036 -62.093  1.00  0.00     0.283 C 
HETATM   19  O2  UNK   900      33.840 -45.409 -61.044  1.00  0.00    -0.263 OA
BRANCH  18  20
HETATM   20  C1  UNK   900      32.596 -45.778 -63.086  1.00  0.00     0.190 C 
BRANCH  20  21
HETATM   21  N1  UNK   900      32.748 -44.508 -63.752  1.00  0.00    -0.340 N 
HETATM   22  C11 UNK   900      33.320 -44.394 -65.032  1.00  0.00     0.249 C 
HETATM   23  O5  UNK   900      33.727 -45.374 -65.665  1.00  0.00    -0.270 OA
HETATM   24  C14 UNK   900      32.266 -43.342 -63.001  1.00  0.00     0.153 C 
BRANCH  22  25
HETATM   25  C12 UNK   900      33.441 -43.000 -65.650  1.00  0.00     0.213 C 
BRANCH  25  26
HETATM   26  O3  UNK   900      32.796 -43.012 -66.920  1.00  0.00    -0.386 OA
HETATM   27  H41 UNK   900      31.990 -42.472 -66.866  1.00  0.00     0.210 HD
ENDBRANCH  25  26
BRANCH  25  28
HETATM   28  C13 UNK   900      34.912 -42.568 -65.827  1.00  0.00     0.015 C 
HETATM   29  C22 UNK   900      35.660 -42.458 -64.493  1.00  0.00     0.012 C 
HETATM   30  C23 UNK   900      34.989 -41.226 -66.562  1.00  0.00     0.012 C 
ENDBRANCH  25  28
ENDBRANCH  22  25
ENDBRANCH  20  21
BRANCH  20  31
HETATM   31  C2  UNK   900      31.210 -45.917 -62.411  1.00  0.00     0.014 C 
HETATM   32  C7  UNK   900      31.217 -46.969 -61.294  1.00  0.00     0.012 C 
BRANCH  31  33
HETATM   33  C3  UNK   900      30.122 -46.213 -63.467  1.00  0.00     0.002 C 
HETATM   34  C15 UNK   900      29.823 -47.696 -63.634  1.00  0.00     0.005 C 
ENDBRANCH  31  33
ENDBRANCH  20  31
ENDBRANCH  18  20
ENDBRANCH   1  18
TORSDOF 15
ENDMDL
MODEL 5
REMARK VINA RESULT:      -5.5      1.950      2.671
REMARK  15 active torsions:
REMARK  status: ('A' for Active; 'I' for Inactive)
REMARK    1  A    between atoms: O1_1  and  C4_13 
REMARK    2  A    between atoms: O1_1  and  C6_15 
REMARK    3  A    between atoms: O3_3  and  C12_21 
REMARK    4  A    between atoms: O6_6  and  C21_30 
REMARK    5  A    between atoms: N1_8  and  C1_10 
REMARK       I    between atoms: N1_8  and  C11_20 
REMARK    6  A    between atoms: N2_9  and  C8_17 
REMARK       I    between atoms: N2_9  and  C10_19 
REMARK    7  A    between atoms: C1_10  and  C2_11 
REMARK    8  A    between atoms: C1_10  and  C6_15 
REMARK    9  A    between atoms: C2_11  and  C3_12 
REMARK   10  A    between atoms: C4_13  and  C5_14 
REMARK   11  A    between atoms: C4_13  and  C10_19 
REMARK   12  A    between atoms: C8_17  and  C9_18 
REMARK   13  A    between atoms: C8_17  and  C21_30 
REMARK   14  A    between atoms: C11_20  and  C12_21 
REMARK   15  A    between atoms: C12_21  and  C13_22 
ROOT
HETATM    1  O1  UNK   900      34.386 -45.588 -63.402  1.00  0.00    -0.304 OA
ENDROOT
BRANCH   1   2
HETATM    2  C4  UNK   900      34.388 -46.217 -62.124  1.00  0.00     0.227 C 
BRANCH   2   3
HETATM    3  C5  UNK   900      35.768 -46.026 -61.461  1.00  0.00     0.016 C 
HETATM    4  C16 UNK   900      36.151 -47.273 -60.658  1.00  0.00     0.012 C 
HETATM    5  C17 UNK   900      36.875 -45.720 -62.478  1.00  0.00     0.012 C 
ENDBRANCH   2   3
BRANCH   2   6
HETATM    6  C10 UNK   900      34.040 -47.695 -62.312  1.00  0.00     0.250 C 
HETATM    7  O4  UNK   900      34.730 -48.388 -63.067  1.00  0.00    -0.270 OA
HETATM    8  N2  UNK   900      32.943 -48.199 -61.607  1.00  0.00    -0.339 N 
HETATM    9  C20 UNK   900      32.132 -47.371 -60.716  1.00  0.00     0.153 C 
BRANCH   8  10
HETATM   10  C8  UNK   900      32.518 -49.591 -61.702  1.00  0.00     0.188 C 
BRANCH  10  11
HETATM   11  C9  UNK   900      32.324 -50.186 -60.291  1.00  0.00     0.011 C 
HETATM   12  C18 UNK   900      31.696 -51.584 -60.308  1.00  0.00     0.012 C 
HETATM   13  C19 UNK   900      33.625 -50.200 -59.483  1.00  0.00     0.012 C 
ENDBRANCH  10  11
BRANCH  10  14
HETATM   14  C21 UNK   900      31.305 -49.727 -62.617  1.00  0.00     0.164 C 
HETATM   15  O7  UNK   900      30.148 -49.618 -62.228  1.00  0.00    -0.648 OA
BRANCH  14  16
HETATM   16  O6  UNK   900      31.601 -50.035 -63.904  1.00  0.00    -0.775 OA
HETATM   17  H42 UNK   900      31.232 -49.378 -64.532  1.00  0.00     0.167 HD
ENDBRANCH  14  16
ENDBRANCH  10  14
ENDBRANCH   8  10
ENDBRANCH   2   6
ENDBRANCH   1   2
BRANCH   1  18
HETATM   18  C6  UNK   900      33.382 -44.689 -63.627  1.00  0.00     0.283 C 
HETATM   19  O2  UNK   900      32.439 -44.488 -62.869  1.00  0.00    -0.263 OA
BRANCH  18  20
HETATM   20  C1  UNK   900      33.555 -43.940 -64.944  1.00  0.00     0.190 C 
BRANCH  20  21
HETATM   21  N1  UNK   900      33.144 -44.737 -66.073  1.00  0.00    -0.340 N 
HETATM   22  C11 UNK   900      31.973 -44.464 -66.801  1.00  0.00     0.249 C 
HETATM   23  O5  UNK   900      31.221 -43.524 -66.518  1.00  0.00    -0.270 OA
HETATM   24  C14 UNK   900      34.035 -45.855 -66.410  1.00  0.00     0.153 C 
BRANCH  22  25
HETATM   25  C12 UNK   900      31.623 -45.374 -67.980  1.00  0.00     0.213 C 
BRANCH  25  26
HETATM   26  O3  UNK   900      31.480 -44.568 -69.145  1.00  0.00    -0.386 OA
HETATM   27  H41 UNK   900      32.219 -44.756 -69.747  1.00  0.00     0.210 HD
ENDBRANCH  25  26
BRANCH  25  28
HETATM   28  C13 UNK   900      30.317 -46.161 -67.739  1.00  0.00     0.015 C 
HETATM   29  C22 UNK   900      30.301 -46.879 -66.384  1.00  0.00     0.012 C 
HETATM   30  C23 UNK   900      30.100 -47.187 -68.857  1.00  0.00     0.012 C 
ENDBRANCH  25  28
ENDBRANCH  22  25
ENDBRANCH  20  21
BRANCH  20  31
HETATM   31  C2  UNK   900      35.000 -43.408 -65.104  1.00  0.00     0.014 C 
HETATM   32  C7  UNK   900      35.467 -42.630 -63.865  1.00  0.00     0.012 C 
BRANCH  31  33
HETATM   33  C3  UNK   900      35.125 -42.561 -66.389  1.00  0.00     0.002 C 
HETATM   34  C15 UNK   900      34.385 -41.232 -66.318  1.00  0.00     0.005 C 
ENDBRANCH  31  33
ENDBRANCH  20  31
ENDBRANCH  18  20
ENDBRANCH   1  18
TORSDOF 15
ENDMDL
MODEL 6
REMARK VINA RESULT:      -5.3     10.891     13.135
REMARK  15 active torsions:
REMARK  status: ('A' for Active; 'I' for Inactive)
REMARK    1  A    between atoms: O1_1  and  C4_13 
REMARK    2  A    between atoms: O1_1  and  C6_15 
REMARK    3  A    between atoms: O3_3  and  C12_21 
REMARK    4  A    between atoms: O6_6  and  C21_30 
REMARK    5  A    between atoms: N1_8  and  C1_10 
REMARK       I    between atoms: N1_8  and  C11_20 
REMARK    6  A    between atoms: N2_9  and  C8_17 
REMARK       I    between atoms: N2_9  and  C10_19 
REMARK    7  A    between atoms: C1_10  and  C2_11 
REMARK    8  A    between atoms: C1_10  and  C6_15 
REMARK    9  A    between atoms: C2_11  and  C3_12 
REMARK   10  A    between atoms: C4_13  and  C5_14 
REMARK   11  A    between atoms: C4_13  and  C10_19 
REMARK   12  A    between atoms: C8_17  and  C9_18 
REMARK   13  A    between atoms: C8_17  and  C21_30 
REMARK   14  A    between atoms: C11_20  and  C12_21 
REMARK   15  A    between atoms: C12_21  and  C13_22 
ROOT
HETATM    1  O1  UNK   900      35.093 -36.495 -57.362  1.00  0.00    -0.304 OA
ENDROOT
BRANCH   1   2
HETATM    2  C4  UNK   900      34.785 -37.778 -56.828  1.00  0.00     0.227 C 
BRANCH   2   3
HETATM    3  C5  UNK   900      33.518 -37.679 -55.953  1.00  0.00     0.016 C 
HETATM    4  C16 UNK   900      32.301 -37.329 -56.816  1.00  0.00     0.012 C 
HETATM    5  C17 UNK   900      33.233 -38.970 -55.176  1.00  0.00     0.012 C 
ENDBRANCH   2   3
BRANCH   2   6
HETATM    6  C10 UNK   900      35.995 -38.274 -56.033  1.00  0.00     0.250 C 
HETATM    7  O4  UNK   900      36.394 -37.618 -55.065  1.00  0.00    -0.270 OA
HETATM    8  N2  UNK   900      36.599 -39.466 -56.445  1.00  0.00    -0.339 N 
HETATM    9  C20 UNK   900      36.120 -40.236 -57.592  1.00  0.00     0.153 C 
BRANCH   8  10
HETATM   10  C8  UNK   900      37.754 -40.039 -55.764  1.00  0.00     0.188 C 
BRANCH  10  11
HETATM   11  C9  UNK   900      37.385 -41.406 -55.147  1.00  0.00     0.011 C 
HETATM   12  C18 UNK   900      38.300 -41.810 -53.986  1.00  0.00     0.012 C 
HETATM   13  C19 UNK   900      35.918 -41.468 -54.712  1.00  0.00     0.012 C 
ENDBRANCH  10  11
BRANCH  10  14
HETATM   14  C21 UNK   900      38.968 -40.070 -56.687  1.00  0.00     0.164 C 
HETATM   15  O7  UNK   900      39.608 -39.072 -56.997  1.00  0.00    -0.648 OA
BRANCH  14  16
HETATM   16  O6  UNK   900      39.264 -41.294 -57.188  1.00  0.00    -0.775 OA
HETATM   17  H42 UNK   900      39.720 -41.234 -58.055  1.00  0.00     0.167 HD
ENDBRANCH  14  16
ENDBRANCH  10  14
ENDBRANCH   8  10
ENDBRANCH   2   6
ENDBRANCH   1   2
BRANCH   1  18
HETATM   18  C6  UNK   900      35.201 -36.420 -58.722  1.00  0.00     0.283 C 
HETATM   19  O2  UNK   900      34.745 -37.245 -59.507  1.00  0.00    -0.263 OA
BRANCH  18  20
HETATM   20  C1  UNK   900      35.961 -35.180 -59.180  1.00  0.00     0.190 C 
BRANCH  20  21
HETATM   21  N1  UNK   900      37.325 -35.486 -59.534  1.00  0.00    -0.340 N 
HETATM   22  C11 UNK   900      37.891 -35.092 -60.759  1.00  0.00     0.249 C 
HETATM   23  O5  UNK   900      37.255 -34.459 -61.609  1.00  0.00    -0.270 OA
HETATM   24  C14 UNK   900      38.082 -36.239 -58.525  1.00  0.00     0.153 C 
BRANCH  22  25
HETATM   25  C12 UNK   900      39.346 -35.470 -61.040  1.00  0.00     0.213 C 
BRANCH  25  26
HETATM   26  O3  UNK   900      40.076 -34.280 -61.319  1.00  0.00    -0.386 OA
HETATM   27  H41 UNK   900      39.679 -33.844 -62.091  1.00  0.00     0.210 HD
ENDBRANCH  25  26
BRANCH  25  28
HETATM   28  C13 UNK   900      39.474 -36.441 -62.234  1.00  0.00     0.015 C 
HETATM   29  C22 UNK   900      39.103 -37.882 -61.866  1.00  0.00     0.012 C 
HETATM   30  C23 UNK   900      40.900 -36.412 -62.794  1.00  0.00     0.012 C 
ENDBRANCH  25  28
ENDBRANCH  22  25
ENDBRANCH  20  21
BRANCH  20  31
HETATM   31  C2  UNK   900      35.873 -34.046 -58.129  1.00  0.00     0.014 C 
HETATM   32  C7  UNK   900      34.457 -33.463 -58.029  1.00  0.00     0.012 C 
BRANCH  31  33
HETATM   33  C3  UNK   900      36.921 -32.952 -58.427  1.00  0.00     0.002 C 
HETATM   34  C15 UNK   900      36.395 -31.828 -59.309  1.00  0.00     0.005 C 
ENDBRANCH  31  33
ENDBRANCH  20  31
ENDBRANCH  18  20
ENDBRANCH   1  18
TORSDOF 15
ENDMDL
MODEL 7
REMARK VINA RESULT:      -5.2     11.775     14.550
REMARK  15 active torsions:
REMARK  status: ('A' for Active; 'I' for Inactive)
REMARK    1  A    between atoms: O1_1  and  C4_13 
REMARK    2  A    between atoms: O1_1  and  C6_15 
REMARK    3  A    between atoms: O3_3  and  C12_21 
REMARK    4  A    between atoms: O6_6  and  C21_30 
REMARK    5  A    between atoms: N1_8  and  C1_10 
REMARK       I    between atoms: N1_8  and  C11_20 
REMARK    6  A    between atoms: N2_9  and  C8_17 
REMARK       I    between atoms: N2_9  and  C10_19 
REMARK    7  A    between atoms: C1_10  and  C2_11 
REMARK    8  A    between atoms: C1_10  and  C6_15 
REMARK    9  A    between atoms: C2_11  and  C3_12 
REMARK   10  A    between atoms: C4_13  and  C5_14 
REMARK   11  A    between atoms: C4_13  and  C10_19 
REMARK   12  A    between atoms: C8_17  and  C9_18 
REMARK   13  A    between atoms: C8_17  and  C21_30 
REMARK   14  A    between atoms: C11_20  and  C12_21 
REMARK   15  A    between atoms: C12_21  and  C13_22 
ROOT
HETATM    1  O1  UNK   900      34.911 -35.152 -57.427  1.00  0.00    -0.304 OA
ENDROOT
BRANCH   1   2
HETATM    2  C4  UNK   900      34.546 -36.513 -57.225  1.00  0.00     0.227 C 
BRANCH   2   3
HETATM    3  C5  UNK   900      33.039 -36.596 -56.898  1.00  0.00     0.016 C 
HETATM    4  C16 UNK   900      32.218 -36.671 -58.189  1.00  0.00     0.012 C 
HETATM    5  C17 UNK   900      32.693 -37.795 -56.008  1.00  0.00     0.012 C 
ENDBRANCH   2   3
BRANCH   2   6
HETATM    6  C10 UNK   900      35.410 -37.083 -56.098  1.00  0.00     0.250 C 
HETATM    7  O4  UNK   900      35.475 -36.482 -55.021  1.00  0.00    -0.270 OA
HETATM    8  N2  UNK   900      36.092 -38.278 -56.345  1.00  0.00    -0.339 N 
HETATM    9  C20 UNK   900      36.010 -38.983 -57.623  1.00  0.00     0.153 C 
BRANCH   8  10
HETATM   10  C8  UNK   900      36.942 -38.919 -55.348  1.00  0.00     0.188 C 
BRANCH  10  11
HETATM   11  C9  UNK   900      36.627 -40.428 -55.270  1.00  0.00     0.011 C 
HETATM   12  C18 UNK   900      37.471 -41.168 -54.228  1.00  0.00     0.012 C 
HETATM   13  C19 UNK   900      35.138 -40.698 -55.033  1.00  0.00     0.012 C 
ENDBRANCH  10  11
BRANCH  10  14
HETATM   14  C21 UNK   900      38.412 -38.593 -55.596  1.00  0.00     0.164 C 
HETATM   15  O7  UNK   900      39.081 -39.116 -56.481  1.00  0.00    -0.648 OA
BRANCH  14  16
HETATM   16  O6  UNK   900      38.949 -37.709 -54.721  1.00  0.00    -0.775 OA
HETATM   17  H42 UNK   900      39.721 -37.238 -55.103  1.00  0.00     0.167 HD
ENDBRANCH  14  16
ENDBRANCH  10  14
ENDBRANCH   8  10
ENDBRANCH   2   6
ENDBRANCH   1   2
BRANCH   1  18
HETATM   18  C6  UNK   900      35.298 -34.816 -58.693  1.00  0.00     0.283 C 
HETATM   19  O2  UNK   900      34.663 -35.073 -59.711  1.00  0.00    -0.263 OA
BRANCH  18  20
HETATM   20  C1  UNK   900      36.627 -34.068 -58.719  1.00  0.00     0.190 C 
BRANCH  20  21
HETATM   21  N1  UNK   900      36.549 -32.863 -59.508  1.00  0.00    -0.340 N 
HETATM   22  C11 UNK   900      36.147 -31.632 -58.961  1.00  0.00     0.249 C 
HETATM   23  O5  UNK   900      35.836 -31.505 -57.772  1.00  0.00    -0.270 OA
HETATM   24  C14 UNK   900      36.919 -33.012 -60.921  1.00  0.00     0.153 C 
BRANCH  22  25
HETATM   25  C12 UNK   900      36.093 -30.412 -59.884  1.00  0.00     0.213 C 
BRANCH  25  26
HETATM   26  O3  UNK   900      37.426 -29.980 -60.139  1.00  0.00    -0.386 OA
HETATM   27  H41 UNK   900      37.656 -30.206 -61.056  1.00  0.00     0.210 HD
ENDBRANCH  25  26
BRANCH  25  28
HETATM   28  C13 UNK   900      35.288 -29.250 -59.264  1.00  0.00     0.015 C 
HETATM   29  C22 UNK   900      33.963 -28.995 -59.992  1.00  0.00     0.012 C 
HETATM   30  C23 UNK   900      36.123 -27.965 -59.264  1.00  0.00     0.012 C 
ENDBRANCH  25  28
ENDBRANCH  22  25
ENDBRANCH  20  21
BRANCH  20  31
HETATM   31  C2  UNK   900      37.783 -34.990 -59.179  1.00  0.00     0.014 C 
HETATM   32  C7  UNK   900      37.284 -36.388 -59.567  1.00  0.00     0.012 C 
BRANCH  31  33
HETATM   33  C3  UNK   900      38.884 -35.056 -58.098  1.00  0.00     0.002 C 
HETATM   34  C15 UNK   900      38.358 -34.872 -56.681  1.00  0.00     0.005 C 
ENDBRANCH  31  33
ENDBRANCH  20  31
ENDBRANCH  18  20
ENDBRANCH   1  18
TORSDOF 15
ENDMDL
MODEL 8
REMARK VINA RESULT:      -5.2     10.714     13.190
REMARK  15 active torsions:
REMARK  status: ('A' for Active; 'I' for Inactive)
REMARK    1  A    between atoms: O1_1  and  C4_13 
REMARK    2  A    between atoms: O1_1  and  C6_15 
REMARK    3  A    between atoms: O3_3  and  C12_21 
REMARK    4  A    between atoms: O6_6  and  C21_30 
REMARK    5  A    between atoms: N1_8  and  C1_10 
REMARK       I    between atoms: N1_8  and  C11_20 
REMARK    6  A    between atoms: N2_9  and  C8_17 
REMARK       I    between atoms: N2_9  and  C10_19 
REMARK    7  A    between atoms: C1_10  and  C2_11 
REMARK    8  A    between atoms: C1_10  and  C6_15 
REMARK    9  A    between atoms: C2_11  and  C3_12 
REMARK   10  A    between atoms: C4_13  and  C5_14 
REMARK   11  A    between atoms: C4_13  and  C10_19 
REMARK   12  A    between atoms: C8_17  and  C9_18 
REMARK   13  A    between atoms: C8_17  and  C21_30 
REMARK   14  A    between atoms: C11_20  and  C12_21 
REMARK   15  A    between atoms: C12_21  and  C13_22 
ROOT
HETATM    1  O1  UNK   900      37.476 -36.939 -59.459  1.00  0.00    -0.304 OA
ENDROOT
BRANCH   1   2
HETATM    2  C4  UNK   900      38.267 -38.056 -59.066  1.00  0.00     0.227 C 
BRANCH   2   3
HETATM    3  C5  UNK   900      39.101 -38.541 -60.270  1.00  0.00     0.016 C 
HETATM    4  C16 UNK   900      39.592 -39.974 -60.036  1.00  0.00     0.012 C 
HETATM    5  C17 UNK   900      38.323 -38.483 -61.590  1.00  0.00     0.012 C 
ENDBRANCH   2   3
BRANCH   2   6
HETATM    6  C10 UNK   900      37.334 -39.147 -58.536  1.00  0.00     0.250 C 
HETATM    7  O4  UNK   900      36.476 -39.626 -59.285  1.00  0.00    -0.270 OA
HETATM    8  N2  UNK   900      37.502 -39.557 -57.210  1.00  0.00    -0.339 N 
HETATM    9  C20 UNK   900      38.519 -38.983 -56.331  1.00  0.00     0.153 C 
BRANCH   8  10
HETATM   10  C8  UNK   900      36.677 -40.590 -56.596  1.00  0.00     0.188 C 
BRANCH  10  11
HETATM   11  C9  UNK   900      37.491 -41.363 -55.536  1.00  0.00     0.011 C 
HETATM   12  C18 UNK   900      36.619 -42.211 -54.605  1.00  0.00     0.012 C 
HETATM   13  C19 UNK   900      38.588 -42.226 -56.165  1.00  0.00     0.012 C 
ENDBRANCH  10  11
BRANCH  10  14
HETATM   14  C21 UNK   900      35.366 -40.004 -56.080  1.00  0.00     0.164 C 
HETATM   15  O7  UNK   900      35.298 -38.966 -55.431  1.00  0.00    -0.648 OA
BRANCH  14  16
HETATM   16  O6  UNK   900      34.268 -40.751 -56.351  1.00  0.00    -0.775 OA
HETATM   17  H42 UNK   900      33.576 -40.648 -55.664  1.00  0.00     0.167 HD
ENDBRANCH  14  16
ENDBRANCH  10  14
ENDBRANCH   8  10
ENDBRANCH   2   6
ENDBRANCH   1   2
BRANCH   1  18
HETATM   18  C6  UNK   900      37.801 -35.742 -58.887  1.00  0.00     0.283 C 
HETATM   19  O2  UNK   900      38.904 -35.461 -58.429  1.00  0.00    -0.263 OA
BRANCH  18  20
HETATM   20  C1  UNK   900      36.631 -34.763 -58.875  1.00  0.00     0.190 C 
BRANCH  20  21
HETATM   21  N1  UNK   900      37.030 -33.446 -59.305  1.00  0.00    -0.340 N 
HETATM   22  C11 UNK   900      36.820 -32.988 -60.618  1.00  0.00     0.249 C 
HETATM   23  O5  UNK   900      36.282 -33.686 -61.485  1.00  0.00    -0.270 OA
HETATM   24  C14 UNK   900      37.670 -32.616 -58.277  1.00  0.00     0.153 C 
BRANCH  22  25
HETATM   25  C12 UNK   900      37.284 -31.575 -60.976  1.00  0.00     0.213 C 
BRANCH  25  26
HETATM   26  O3  UNK   900      36.135 -30.758 -61.169  1.00  0.00    -0.386 OA
HETATM   27  H41 UNK   900      36.170 -30.375 -62.062  1.00  0.00     0.210 HD
ENDBRANCH  25  26
BRANCH  25  28
HETATM   28  C13 UNK   900      38.148 -31.554 -62.255  1.00  0.00     0.015 C 
HETATM   29  C22 UNK   900      39.650 -31.615 -61.955  1.00  0.00     0.012 C 
HETATM   30  C23 UNK   900      37.847 -30.298 -63.080  1.00  0.00     0.012 C 
ENDBRANCH  25  28
ENDBRANCH  22  25
ENDBRANCH  20  21
BRANCH  20  31
HETATM   31  C2  UNK   900      35.933 -34.737 -57.493  1.00  0.00     0.014 C 
HETATM   32  C7  UNK   900      36.492 -35.807 -56.546  1.00  0.00     0.012 C 
BRANCH  31  33
HETATM   33  C3  UNK   900      34.403 -34.864 -57.658  1.00  0.00     0.002 C 
HETATM   34  C15 UNK   900      33.714 -33.545 -57.982  1.00  0.00     0.005 C 
ENDBRANCH  31  33
ENDBRANCH  20  31
ENDBRANCH  18  20
ENDBRANCH   1  18
TORSDOF 15
ENDMDL
MODEL 9
REMARK VINA RESULT:      -4.9     10.936     14.497
REMARK  15 active torsions:
REMARK  status: ('A' for Active; 'I' for Inactive)
REMARK    1  A    between atoms: O1_1  and  C4_13 
REMARK    2  A    between atoms: O1_1  and  C6_15 
REMARK    3  A    between atoms: O3_3  and  C12_21 
REMARK    4  A    between atoms: O6_6  and  C21_30 
REMARK    5  A    between atoms: N1_8  and  C1_10 
REMARK       I    between atoms: N1_8  and  C11_20 
REMARK    6  A    between atoms: N2_9  and  C8_17 
REMARK       I    between atoms: N2_9  and  C10_19 
REMARK    7  A    between atoms: C1_10  and  C2_11 
REMARK    8  A    between atoms: C1_10  and  C6_15 
REMARK    9  A    between atoms: C2_11  and  C3_12 
REMARK   10  A    between atoms: C4_13  and  C5_14 
REMARK   11  A    between atoms: C4_13  and  C10_19 
REMARK   12  A    between atoms: C8_17  and  C9_18 
REMARK   13  A    between atoms: C8_17  and  C21_30 
REMARK   14  A    between atoms: C11_20  and  C12_21 
REMARK   15  A    between atoms: C12_21  and  C13_22 
ROOT
HETATM    1  O1  UNK   900      37.660 -37.567 -59.082  1.00  0.00    -0.304 OA
ENDROOT
BRANCH   1   2
HETATM    2  C4  UNK   900      37.868 -36.826 -60.280  1.00  0.00     0.227 C 
BRANCH   2   3
HETATM    3  C5  UNK   900      38.783 -37.630 -61.228  1.00  0.00     0.016 C 
HETATM    4  C16 UNK   900      38.196 -39.022 -61.482  1.00  0.00     0.012 C 
HETATM    5  C17 UNK   900      39.010 -36.924 -62.570  1.00  0.00     0.012 C 
ENDBRANCH   2   3
BRANCH   2   6
HETATM    6  C10 UNK   900      38.471 -35.469 -59.911  1.00  0.00     0.250 C 
HETATM    7  O4  UNK   900      39.660 -35.405 -59.580  1.00  0.00    -0.270 OA
HETATM    8  N2  UNK   900      37.637 -34.349 -59.971  1.00  0.00    -0.339 N 
HETATM    9  C20 UNK   900      36.231 -34.435 -60.364  1.00  0.00     0.153 C 
BRANCH   8  10
HETATM   10  C8  UNK   900      38.099 -33.005 -59.647  1.00  0.00     0.188 C 
BRANCH  10  11
HETATM   11  C9  UNK   900      37.406 -31.969 -60.557  1.00  0.00     0.011 C 
HETATM   12  C18 UNK   900      37.457 -30.544 -59.997  1.00  0.00     0.012 C 
HETATM   13  C19 UNK   900      37.952 -31.995 -61.987  1.00  0.00     0.012 C 
ENDBRANCH  10  11
BRANCH  10  14
HETATM   14  C21 UNK   900      37.959 -32.727 -58.153  1.00  0.00     0.164 C 
HETATM   15  O7  UNK   900      38.912 -32.656 -57.386  1.00  0.00    -0.648 OA
BRANCH  14  16
HETATM   16  O6  UNK   900      36.681 -32.614 -57.718  1.00  0.00    -0.775 OA
HETATM   17  H42 UNK   900      36.103 -33.314 -58.092  1.00  0.00     0.167 HD
ENDBRANCH  14  16
ENDBRANCH  10  14
ENDBRANCH   8  10
ENDBRANCH   2   6
ENDBRANCH   1   2
BRANCH   1  18
HETATM   18  C6  UNK   900      36.359 -37.806 -58.741  1.00  0.00     0.283 C 
HETATM   19  O2  UNK   900      35.457 -38.039 -59.540  1.00  0.00    -0.263 OA
BRANCH  18  20
HETATM   20  C1  UNK   900      36.132 -37.759 -57.234  1.00  0.00     0.190 C 
BRANCH  20  21
HETATM   21  N1  UNK   900      36.516 -38.994 -56.595  1.00  0.00    -0.340 N 
HETATM   22  C11 UNK   900      37.330 -39.026 -55.449  1.00  0.00     0.249 C 
HETATM   23  O5  UNK   900      37.766 -37.999 -54.917  1.00  0.00    -0.270 OA
HETATM   24  C14 UNK   900      35.999 -40.215 -57.225  1.00  0.00     0.153 C 
BRANCH  22  25
HETATM   25  C12 UNK   900      37.684 -40.388 -54.849  1.00  0.00     0.213 C 
BRANCH  25  26
HETATM   26  O3  UNK   900      37.078 -40.488 -53.565  1.00  0.00    -0.386 OA
HETATM   27  H41 UNK   900      36.178 -40.838 -53.671  1.00  0.00     0.210 HD
ENDBRANCH  25  26
BRANCH  25  28
HETATM   28  C13 UNK   900      39.209 -40.583 -54.712  1.00  0.00     0.015 C 
HETATM   29  C22 UNK   900      39.795 -41.464 -55.822  1.00  0.00     0.012 C 
HETATM   30  C23 UNK   900      39.548 -41.195 -53.348  1.00  0.00     0.012 C 
ENDBRANCH  25  28
ENDBRANCH  22  25
ENDBRANCH  20  21
BRANCH  20  31
HETATM   31  C2  UNK   900      34.675 -37.360 -56.896  1.00  0.00     0.014 C 
HETATM   32  C7  UNK   900      34.449 -35.847 -57.027  1.00  0.00     0.012 C 
BRANCH  31  33
HETATM   33  C3  UNK   900      34.284 -37.877 -55.495  1.00  0.00     0.002 C 
HETATM   34  C15 UNK   900      32.884 -38.473 -55.435  1.00  0.00     0.005 C 
ENDBRANCH  31  33
ENDBRANCH  20  31
ENDBRANCH  18  20
ENDBRANCH   1  18
TORSDOF 15
ENDMDL
