MODEL 1
REMARK VINA RESULT:      -5.9      0.000      0.000
REMARK  4 active torsions:
REMARK  status: ('A' for Active; 'I' for Inactive)
REMARK    1  A    between atoms: O1_1  and  C3_6 
REMARK    2  A    between atoms: O3_3  and  C13_16 
REMARK    3  A    between atoms: C4_7  and  C12_15 
REMARK    4  A    between atoms: C10_13  and  C13_16 
ROOT
HETATM    1  O2  UNK   900      26.453 -21.605 -76.660  1.00  0.00    -0.292 OA
HETATM    2  C1  UNK   900      25.637 -22.121 -74.410  1.00  0.00     0.054 C 
HETATM    3  C2  UNK   900      24.240 -22.738 -74.181  1.00  0.00     0.036 C 
HETATM    4  C3  UNK   900      25.705 -20.671 -73.923  1.00  0.00     0.138 C 
HETATM    5  C4  UNK   900      24.060 -23.650 -75.375  1.00  0.00    -0.071 C 
HETATM    6  C5  UNK   900      24.052 -23.350 -72.800  1.00  0.00     0.037 C 
HETATM    7  C6  UNK   900      25.724 -22.250 -75.923  1.00  0.00     0.161 C 
HETATM    8  C7  UNK   900      26.819 -22.955 -73.868  1.00  0.00     0.027 C 
HETATM    9  C8  UNK   900      25.748 -20.499 -72.395  1.00  0.00     0.069 C 
HETATM   10  C9  UNK   900      24.856 -23.339 -76.405  1.00  0.00     0.054 C 
HETATM   11  C10 UNK   900      24.777 -21.220 -71.474  1.00  0.00    -0.058 C 
HETATM   12  C11 UNK   900      24.117 -22.381 -71.651  1.00  0.00    -0.021 C 
ENDROOT
BRANCH  11  13
HETATM   13  C13 UNK   900      24.627 -20.514 -70.141  1.00  0.00     0.198 C 
BRANCH  13  14
HETATM   14  O3  UNK   900      24.907 -21.424 -69.101  1.00  0.00    -0.397 OA
HETATM   15  H20 UNK   900      25.179 -22.262 -69.515  1.00  0.00     0.209 HD
ENDBRANCH  13  14
ENDBRANCH  11  13
BRANCH   4  16
HETATM   16  O1  UNK   900      24.605 -19.917 -74.442  1.00  0.00    -0.394 OA
HETATM   17  H14 UNK   900      23.960 -19.799 -73.724  1.00  0.00     0.210 HD
ENDBRANCH   4  16
BRANCH   5  18
HETATM   18  C12 UNK   900      22.999 -24.695 -75.411  1.00  0.00     0.030 C 
HETATM   19  C14 UNK   900      23.037 -25.502 -76.698  1.00  0.00     0.010 C 
ENDBRANCH   5  18
TORSDOF 4
ENDMDL
MODEL 2
REMARK VINA RESULT:      -5.5     33.571     35.510
REMARK  4 active torsions:
REMARK  status: ('A' for Active; 'I' for Inactive)
REMARK    1  A    between atoms: O1_1  and  C3_6 
REMARK    2  A    between atoms: O3_3  and  C13_16 
REMARK    3  A    between atoms: C4_7  and  C12_15 
REMARK    4  A    between atoms: C10_13  and  C13_16 
ROOT
HETATM    1  O2  UNK   900       1.061 -43.958 -61.841  1.00  0.00    -0.292 OA
HETATM    2  C1  UNK   900       2.200 -45.576 -60.399  1.00  0.00     0.054 C 
HETATM    3  C2  UNK   900       3.480 -46.306 -60.860  1.00  0.00     0.036 C 
HETATM    4  C3  UNK   900       1.002 -46.526 -60.317  1.00  0.00     0.138 C 
HETATM    5  C4  UNK   900       4.197 -45.263 -61.691  1.00  0.00    -0.071 C 
HETATM    6  C5  UNK   900       4.264 -46.956 -59.729  1.00  0.00     0.037 C 
HETATM    7  C6  UNK   900       2.077 -44.552 -61.517  1.00  0.00     0.161 C 
HETATM    8  C7  UNK   900       2.349 -44.743 -59.107  1.00  0.00     0.027 C 
HETATM    9  C8  UNK   900       1.022 -47.497 -59.125  1.00  0.00     0.069 C 
HETATM   10  C9  UNK   900       3.391 -44.289 -62.131  1.00  0.00     0.054 C 
HETATM   11  C10 UNK   900       2.251 -48.319 -58.772  1.00  0.00    -0.058 C 
HETATM   12  C11 UNK   900       3.555 -48.072 -59.010  1.00  0.00    -0.021 C 
ENDROOT
BRANCH  11  13
HETATM   13  C13 UNK   900       1.899 -49.554 -57.968  1.00  0.00     0.198 C 
BRANCH  13  14
HETATM   14  O3  UNK   900       3.085 -50.149 -57.490  1.00  0.00    -0.397 OA
HETATM   15  H20 UNK   900       2.828 -50.929 -56.969  1.00  0.00     0.209 HD
ENDBRANCH  13  14
ENDBRANCH  11  13
BRANCH   4  16
HETATM   16  O1  UNK   900       0.880 -47.282 -61.525  1.00  0.00    -0.394 OA
HETATM   17  H14 UNK   900       0.275 -46.803 -62.116  1.00  0.00     0.210 HD
ENDBRANCH   4  16
BRANCH   5  18
HETATM   18  C12 UNK   900       5.629 -45.414 -62.071  1.00  0.00     0.030 C 
HETATM   19  C14 UNK   900       6.111 -44.265 -62.941  1.00  0.00     0.010 C 
ENDBRANCH   5  18
TORSDOF 4
ENDMDL
MODEL 3
REMARK VINA RESULT:      -4.9     47.014     49.290
REMARK  4 active torsions:
REMARK  status: ('A' for Active; 'I' for Inactive)
REMARK    1  A    between atoms: O1_1  and  C3_6 
REMARK    2  A    between atoms: O3_3  and  C13_16 
REMARK    3  A    between atoms: C4_7  and  C12_15 
REMARK    4  A    between atoms: C10_13  and  C13_16 
ROOT
HETATM    1  O2  UNK   900       3.323 -68.692 -62.655  1.00  0.00    -0.292 OA
HETATM    2  C1  UNK   900       4.004 -66.341 -62.724  1.00  0.00     0.054 C 
HETATM    3  C2  UNK   900       5.490 -65.935 -62.823  1.00  0.00     0.036 C 
HETATM    4  C3  UNK   900       3.414 -66.005 -61.352  1.00  0.00     0.138 C 
HETATM    5  C4  UNK   900       6.091 -67.015 -63.698  1.00  0.00    -0.071 C 
HETATM    6  C5  UNK   900       5.711 -64.490 -63.248  1.00  0.00     0.037 C 
HETATM    7  C6  UNK   900       4.134 -67.836 -62.971  1.00  0.00     0.161 C 
HETATM    8  C7  UNK   900       3.105 -65.822 -63.868  1.00  0.00     0.027 C 
HETATM    9  C8  UNK   900       3.146 -64.511 -61.106  1.00  0.00     0.069 C 
HETATM   10  C9  UNK   900       5.358 -68.134 -63.737  1.00  0.00     0.054 C 
HETATM   11  C10 UNK   900       4.188 -63.445 -61.401  1.00  0.00    -0.058 C 
HETATM   12  C11 UNK   900       5.205 -63.450 -62.285  1.00  0.00    -0.021 C 
ENDROOT
BRANCH  11  13
HETATM   13  C13 UNK   900       3.949 -62.179 -60.602  1.00  0.00     0.198 C 
BRANCH  13  14
HETATM   14  O3  UNK   900       4.771 -62.194 -59.456  1.00  0.00    -0.397 OA
HETATM   15  H20 UNK   900       4.711 -63.083 -59.068  1.00  0.00     0.209 HD
ENDBRANCH  13  14
ENDBRANCH  11  13
BRANCH   4  16
HETATM   16  O1  UNK   900       4.259 -66.500 -60.309  1.00  0.00    -0.394 OA
HETATM   17  H14 UNK   900       3.795 -66.372 -59.464  1.00  0.00     0.210 HD
ENDBRANCH   4  16
BRANCH   5  18
HETATM   18  C12 UNK   900       7.431 -66.858 -64.328  1.00  0.00     0.030 C 
HETATM   19  C14 UNK   900       8.499 -67.656 -63.600  1.00  0.00     0.010 C 
ENDBRANCH   5  18
TORSDOF 4
ENDMDL
MODEL 4
REMARK VINA RESULT:      -4.9     16.380     18.713
REMARK  4 active torsions:
REMARK  status: ('A' for Active; 'I' for Inactive)
REMARK    1  A    between atoms: O1_1  and  C3_6 
REMARK    2  A    between atoms: O3_3  and  C13_16 
REMARK    3  A    between atoms: C4_7  and  C12_15 
REMARK    4  A    between atoms: C10_13  and  C13_16 
ROOT
HETATM    1  O2  UNK   900      11.466 -29.559 -71.701  1.00  0.00    -0.292 OA
HETATM    2  C1  UNK   900      10.160 -31.603 -72.040  1.00  0.00     0.054 C 
HETATM    3  C2  UNK   900      10.549 -32.931 -71.354  1.00  0.00     0.036 C 
HETATM    4  C3  UNK   900      10.403 -31.651 -73.551  1.00  0.00     0.138 C 
HETATM    5  C4  UNK   900      11.091 -32.486 -70.012  1.00  0.00    -0.071 C 
HETATM    6  C5  UNK   900       9.440 -33.973 -71.348  1.00  0.00     0.037 C 
HETATM    7  C6  UNK   900      11.102 -30.658 -71.311  1.00  0.00     0.161 C 
HETATM    8  C7  UNK   900       8.741 -31.087 -71.712  1.00  0.00     0.027 C 
HETATM    9  C8  UNK   900       9.394 -32.496 -74.346  1.00  0.00     0.069 C 
HETATM   10  C9  UNK   900      11.475 -31.204 -69.993  1.00  0.00     0.054 C 
HETATM   11  C10 UNK   900       9.011 -33.905 -73.924  1.00  0.00    -0.058 C 
HETATM   12  C11 UNK   900       9.020 -34.476 -72.703  1.00  0.00    -0.021 C 
ENDROOT
BRANCH  11  13
HETATM   13  C13 UNK   900       8.477 -34.721 -75.084  1.00  0.00     0.198 C 
BRANCH  13  14
HETATM   14  O3  UNK   900       9.177 -35.943 -75.152  1.00  0.00    -0.397 OA
HETATM   15  H20 UNK   900       9.147 -36.243 -76.076  1.00  0.00     0.209 HD
ENDBRANCH  13  14
ENDBRANCH  11  13
BRANCH   4  16
HETATM   16  O1  UNK   900      11.724 -32.126 -73.830  1.00  0.00    -0.394 OA
HETATM   17  H14 UNK   900      11.727 -33.089 -73.702  1.00  0.00     0.210 HD
ENDBRANCH   4  16
BRANCH   5  18
HETATM   18  C12 UNK   900      11.285 -33.445 -68.889  1.00  0.00     0.030 C 
HETATM   19  C14 UNK   900      10.250 -33.255 -67.793  1.00  0.00     0.010 C 
ENDBRANCH   5  18
TORSDOF 4
ENDMDL
MODEL 5
REMARK VINA RESULT:      -4.8     52.799     54.651
REMARK  4 active torsions:
REMARK  status: ('A' for Active; 'I' for Inactive)
REMARK    1  A    between atoms: O1_1  and  C3_6 
REMARK    2  A    between atoms: O3_3  and  C13_16 
REMARK    3  A    between atoms: C4_7  and  C12_15 
REMARK    4  A    between atoms: C10_13  and  C13_16 
ROOT
HETATM    1  O2  UNK   900       2.116 -68.973 -51.099  1.00  0.00    -0.292 OA
HETATM    2  C1  UNK   900       4.303 -68.063 -50.479  1.00  0.00     0.054 C 
HETATM    3  C2  UNK   900       4.432 -66.825 -49.566  1.00  0.00     0.036 C 
HETATM    4  C3  UNK   900       4.715 -67.751 -51.921  1.00  0.00     0.138 C 
HETATM    5  C4  UNK   900       3.277 -66.981 -48.600  1.00  0.00    -0.071 C 
HETATM    6  C5  UNK   900       5.819 -66.635 -48.969  1.00  0.00     0.037 C 
HETATM    7  C6  UNK   900       2.814 -68.334 -50.327  1.00  0.00     0.161 C 
HETATM    8  C7  UNK   900       4.999 -69.339 -49.956  1.00  0.00     0.027 C 
HETATM    9  C8  UNK   900       6.228 -67.594 -52.145  1.00  0.00     0.069 C 
HETATM   10  C9  UNK   900       2.312 -67.790 -49.053  1.00  0.00     0.054 C 
HETATM   11  C10 UNK   900       7.091 -66.720 -51.250  1.00  0.00    -0.058 C 
HETATM   12  C11 UNK   900       6.916 -66.360 -49.963  1.00  0.00    -0.021 C 
ENDROOT
BRANCH  11  13
HETATM   13  C13 UNK   900       8.364 -66.276 -51.943  1.00  0.00     0.198 C 
BRANCH  13  14
HETATM   14  O3  UNK   900       8.390 -64.867 -52.005  1.00  0.00    -0.397 OA
HETATM   15  H20 UNK   900       9.252 -64.578 -51.661  1.00  0.00     0.209 HD
ENDBRANCH  13  14
ENDBRANCH  11  13
BRANCH   4  16
HETATM   16  O1  UNK   900       4.055 -66.570 -52.386  1.00  0.00    -0.394 OA
HETATM   17  H14 UNK   900       3.103 -66.763 -52.437  1.00  0.00     0.210 HD
ENDBRANCH   4  16
BRANCH   5  18
HETATM   18  C12 UNK   900       3.197 -66.191 -47.339  1.00  0.00     0.030 C 
HETATM   19  C14 UNK   900       1.943 -65.335 -47.282  1.00  0.00     0.010 C 
ENDBRANCH   5  18
TORSDOF 4
ENDMDL
MODEL 6
REMARK VINA RESULT:      -4.7     50.789     52.639
REMARK  4 active torsions:
REMARK  status: ('A' for Active; 'I' for Inactive)
REMARK    1  A    between atoms: O1_1  and  C3_6 
REMARK    2  A    between atoms: O3_3  and  C13_16 
REMARK    3  A    between atoms: C4_7  and  C12_15 
REMARK    4  A    between atoms: C10_13  and  C13_16 
ROOT
HETATM    1  O2  UNK   900      25.002 -58.083 -34.664  1.00  0.00    -0.292 OA
HETATM    2  C1  UNK   900      24.158 -59.707 -36.290  1.00  0.00     0.054 C 
HETATM    3  C2  UNK   900      24.748 -59.804 -37.713  1.00  0.00     0.036 C 
HETATM    4  C3  UNK   900      22.737 -59.137 -36.302  1.00  0.00     0.138 C 
HETATM    5  C4  UNK   900      26.217 -59.503 -37.504  1.00  0.00    -0.071 C 
HETATM    6  C5  UNK   900      24.397 -61.093 -38.443  1.00  0.00     0.037 C 
HETATM    7  C6  UNK   900      25.175 -58.770 -35.659  1.00  0.00     0.161 C 
HETATM    8  C7  UNK   900      24.238 -61.006 -35.457  1.00  0.00     0.027 C 
HETATM    9  C8  UNK   900      21.653 -60.099 -36.815  1.00  0.00     0.069 C 
HETATM   10  C9  UNK   900      26.467 -58.850 -36.363  1.00  0.00     0.054 C 
HETATM   11  C10 UNK   900      21.815 -60.883 -38.107  1.00  0.00    -0.058 C 
HETATM   12  C11 UNK   900      22.935 -61.290 -38.738  1.00  0.00    -0.021 C 
ENDROOT
BRANCH  11  13
HETATM   13  C13 UNK   900      20.481 -61.305 -38.688  1.00  0.00     0.198 C 
BRANCH  13  14
HETATM   14  O3  UNK   900      20.407 -62.713 -38.704  1.00  0.00    -0.397 OA
HETATM   15  H20 UNK   900      20.231 -63.005 -37.794  1.00  0.00     0.209 HD
ENDBRANCH  13  14
ENDBRANCH  11  13
BRANCH   4  16
HETATM   16  O1  UNK   900      22.687 -57.933 -37.073  1.00  0.00    -0.394 OA
HETATM   17  H14 UNK   900      22.648 -57.184 -36.454  1.00  0.00     0.210 HD
ENDBRANCH   4  16
BRANCH   5  18
HETATM   18  C12 UNK   900      27.234 -59.801 -38.550  1.00  0.00     0.030 C 
HETATM   19  C14 UNK   900      27.913 -58.540 -39.060  1.00  0.00     0.010 C 
ENDBRANCH   5  18
TORSDOF 4
ENDMDL
MODEL 7
REMARK VINA RESULT:      -4.7     53.723     55.526
REMARK  4 active torsions:
REMARK  status: ('A' for Active; 'I' for Inactive)
REMARK    1  A    between atoms: O1_1  and  C3_6 
REMARK    2  A    between atoms: O3_3  and  C13_16 
REMARK    3  A    between atoms: C4_7  and  C12_15 
REMARK    4  A    between atoms: C10_13  and  C13_16 
ROOT
HETATM    1  O2  UNK   900       4.955 -70.533 -52.015  1.00  0.00    -0.292 OA
HETATM    2  C1  UNK   900       6.628 -69.783 -50.393  1.00  0.00     0.054 C 
HETATM    3  C2  UNK   900       7.627 -68.653 -50.728  1.00  0.00     0.036 C 
HETATM    4  C3  UNK   900       7.322 -71.144 -50.298  1.00  0.00     0.138 C 
HETATM    5  C4  UNK   900       6.817 -67.718 -51.601  1.00  0.00    -0.071 C 
HETATM    6  C5  UNK   900       8.313 -68.051 -49.511  1.00  0.00     0.037 C 
HETATM    7  C6  UNK   900       5.702 -69.664 -51.593  1.00  0.00     0.161 C 
HETATM    8  C7  UNK   900       5.729 -69.520 -49.164  1.00  0.00     0.027 C 
HETATM    9  C8  UNK   900       8.171 -71.356 -49.033  1.00  0.00     0.069 C 
HETATM   10  C9  UNK   900       5.749 -68.303 -52.157  1.00  0.00     0.054 C 
HETATM   11  C10 UNK   900       9.178 -70.323 -48.555  1.00  0.00    -0.058 C 
HETATM   12  C11 UNK   900       9.206 -68.989 -48.744  1.00  0.00    -0.021 C 
ENDROOT
BRANCH  11  13
HETATM   13  C13 UNK   900      10.249 -70.937 -47.675  1.00  0.00     0.198 C 
BRANCH  13  14
HETATM   14  O3  UNK   900      10.727 -69.960 -46.778  1.00  0.00    -0.397 OA
HETATM   15  H20 UNK   900       9.964 -69.429 -46.494  1.00  0.00     0.209 HD
ENDBRANCH  13  14
ENDBRANCH  11  13
BRANCH   4  16
HETATM   16  O1  UNK   900       8.143 -71.369 -51.448  1.00  0.00    -0.394 OA
HETATM   17  H14 UNK   900       7.882 -72.219 -51.839  1.00  0.00     0.210 HD
ENDBRANCH   4  16
BRANCH   5  18
HETATM   18  C12 UNK   900       7.270 -66.330 -51.894  1.00  0.00     0.030 C 
HETATM   19  C14 UNK   900       6.224 -65.297 -51.511  1.00  0.00     0.010 C 
ENDBRANCH   5  18
TORSDOF 4
ENDMDL
MODEL 8
REMARK VINA RESULT:      -4.5     53.481     55.335
REMARK  4 active torsions:
REMARK  status: ('A' for Active; 'I' for Inactive)
REMARK    1  A    between atoms: O1_1  and  C3_6 
REMARK    2  A    between atoms: O3_3  and  C13_16 
REMARK    3  A    between atoms: C4_7  and  C12_15 
REMARK    4  A    between atoms: C10_13  and  C13_16 
ROOT
HETATM    1  O2  UNK   900       6.183 -70.046 -46.489  1.00  0.00    -0.292 OA
HETATM    2  C1  UNK   900       6.508 -69.097 -48.722  1.00  0.00     0.054 C 
HETATM    3  C2  UNK   900       7.918 -68.792 -49.271  1.00  0.00     0.036 C 
HETATM    4  C3  UNK   900       5.726 -67.815 -48.423  1.00  0.00     0.138 C 
HETATM    5  C4  UNK   900       8.767 -69.905 -48.694  1.00  0.00    -0.071 C 
HETATM    6  C5  UNK   900       7.966 -68.589 -50.779  1.00  0.00     0.037 C 
HETATM    7  C6  UNK   900       6.887 -69.874 -47.471  1.00  0.00     0.161 C 
HETATM    8  C7  UNK   900       5.673 -70.083 -49.570  1.00  0.00     0.027 C 
HETATM    9  C8  UNK   900       5.212 -67.061 -49.660  1.00  0.00     0.069 C 
HETATM   10  C9  UNK   900       8.218 -70.488 -47.622  1.00  0.00     0.054 C 
HETATM   11  C10 UNK   900       6.109 -66.753 -50.848  1.00  0.00    -0.058 C 
HETATM   12  C11 UNK   900       7.207 -67.395 -51.293  1.00  0.00    -0.021 C 
ENDROOT
BRANCH  11  13
HETATM   13  C13 UNK   900       5.597 -65.579 -51.659  1.00  0.00     0.198 C 
BRANCH  13  14
HETATM   14  O3  UNK   900       6.546 -64.538 -51.616  1.00  0.00    -0.397 OA
HETATM   15  H20 UNK   900       6.720 -64.267 -52.533  1.00  0.00     0.209 HD
ENDBRANCH  13  14
ENDBRANCH  11  13
BRANCH   4  16
HETATM   16  O1  UNK   900       6.515 -66.921 -47.632  1.00  0.00    -0.394 OA
HETATM   17  H14 UNK   900       6.278 -66.012 -47.885  1.00  0.00     0.210 HD
ENDBRANCH   4  16
BRANCH   5  18
HETATM   18  C12 UNK   900      10.130 -70.203 -49.216  1.00  0.00     0.030 C 
HETATM   19  C14 UNK   900      11.215 -69.557 -48.371  1.00  0.00     0.010 C 
ENDBRANCH   5  18
TORSDOF 4
ENDMDL
MODEL 9
REMARK VINA RESULT:      -4.5     45.013     47.336
REMARK  4 active torsions:
REMARK  status: ('A' for Active; 'I' for Inactive)
REMARK    1  A    between atoms: O1_1  and  C3_6 
REMARK    2  A    between atoms: O3_3  and  C13_16 
REMARK    3  A    between atoms: C4_7  and  C12_15 
REMARK    4  A    between atoms: C10_13  and  C13_16 
ROOT
HETATM    1  O2  UNK   900      -1.623 -61.420 -63.083  1.00  0.00    -0.292 OA
HETATM    2  C1  UNK   900       0.532 -61.608 -61.935  1.00  0.00     0.054 C 
HETATM    3  C2  UNK   900       1.687 -60.625 -62.222  1.00  0.00     0.036 C 
HETATM    4  C3  UNK   900       0.832 -63.010 -62.474  1.00  0.00     0.138 C 
HETATM    5  C4  UNK   900       0.975 -59.313 -62.473  1.00  0.00    -0.071 C 
HETATM    6  C5  UNK   900       2.784 -60.632 -61.167  1.00  0.00     0.037 C 
HETATM    7  C6  UNK   900      -0.590 -60.906 -62.685  1.00  0.00     0.161 C 
HETATM    8  C7  UNK   900       0.062 -61.658 -60.464  1.00  0.00     0.027 C 
HETATM    9  C8  UNK   900       1.871 -63.808 -61.669  1.00  0.00     0.069 C 
HETATM   10  C9  UNK   900      -0.313 -59.463 -62.805  1.00  0.00     0.054 C 
HETATM   11  C10 UNK   900       3.205 -63.209 -61.255  1.00  0.00    -0.058 C 
HETATM   12  C11 UNK   900       3.547 -61.923 -61.040  1.00  0.00    -0.021 C 
ENDROOT
BRANCH  11  13
HETATM   13  C13 UNK   900       4.249 -64.275 -60.986  1.00  0.00     0.198 C 
BRANCH  13  14
HETATM   14  O3  UNK   900       3.722 -65.222 -60.085  1.00  0.00    -0.397 OA
HETATM   15  H20 UNK   900       4.030 -64.978 -59.195  1.00  0.00     0.209 HD
ENDBRANCH  13  14
ENDBRANCH  11  13
BRANCH   4  16
HETATM   16  O1  UNK   900       1.259 -62.941 -63.838  1.00  0.00    -0.394 OA
HETATM   17  H14 UNK   900       1.189 -62.015 -64.125  1.00  0.00     0.210 HD
ENDBRANCH   4  16
BRANCH   5  18
HETATM   18  C12 UNK   900       1.703 -58.013 -62.471  1.00  0.00     0.030 C 
HETATM   19  C14 UNK   900       1.581 -57.291 -63.803  1.00  0.00     0.010 C 
ENDBRANCH   5  18
TORSDOF 4
ENDMDL
