MODEL 1
REMARK VINA RESULT:      -6.8      0.000      0.000
REMARK  4 active torsions:
REMARK  status: ('A' for Active; 'I' for Inactive)
REMARK    1  A    between atoms: O2_2  and  C8_13 
REMARK    2  A    between atoms: O2_2  and  C11_16 
REMARK    3  A    between atoms: O3_3  and  C5_10 
REMARK    4  A    between atoms: C3_8  and  C8_13 
ROOT
HETATM    1  O1  UNK   900      32.297 -50.564 -61.919  1.00  0.00    -0.277 OA
HETATM    2  O4  UNK   900      31.434 -50.241 -63.977  1.00  0.00    -0.259 OA
HETATM    3  C1  UNK   900      31.322 -48.086 -61.068  1.00  0.00    -0.015 A 
HETATM    4  C2  UNK   900      31.093 -48.513 -62.380  1.00  0.00     0.083 A 
HETATM    5  C3  UNK   900      32.519 -50.116 -60.596  1.00  0.00     0.082 A 
HETATM    6  C4  UNK   900      32.067 -48.937 -60.154  1.00  0.00     0.047 A 
HETATM    7  C5  UNK   900      30.377 -47.704 -63.270  1.00  0.00     0.082 A 
HETATM    8  C6  UNK   900      30.830 -46.844 -60.651  1.00  0.00     0.012 A 
HETATM    9  C7  UNK   900      31.607 -49.825 -62.838  1.00  0.00     0.302 A 
HETATM   10  C9  UNK   900      29.890 -46.467 -62.845  1.00  0.00     0.037 A 
HETATM   11  C10 UNK   900      30.116 -46.038 -61.539  1.00  0.00     0.004 A 
ENDROOT
BRANCH   5  12
HETATM   12  C8  UNK   900      33.296 -51.072 -59.753  1.00  0.00     0.243 C 
BRANCH  12  13
HETATM   13  O2  UNK   900      32.413 -51.961 -59.091  1.00  0.00    -0.315 OA
BRANCH  13  14
HETATM   14  C11 UNK   900      32.926 -53.192 -58.776  1.00  0.00     0.255 C 
HETATM   15  O5  UNK   900      32.330 -54.091 -58.200  1.00  0.00    -0.266 OA
HETATM   16  C12 UNK   900      34.346 -53.291 -59.245  1.00  0.00     0.126 C 
ENDBRANCH  13  14
ENDBRANCH  12  13
ENDBRANCH   5  12
BRANCH   7  17
HETATM   17  O3  UNK   900      30.125 -48.068 -64.559  1.00  0.00    -0.360 OA
HETATM   18  H7  UNK   900      30.861 -47.817 -65.136  1.00  0.00     0.217 HD
ENDBRANCH   7  17
TORSDOF 4
ENDMDL
MODEL 2
REMARK VINA RESULT:      -6.6      1.926      6.115
REMARK  4 active torsions:
REMARK  status: ('A' for Active; 'I' for Inactive)
REMARK    1  A    between atoms: O2_2  and  C8_13 
REMARK    2  A    between atoms: O2_2  and  C11_16 
REMARK    3  A    between atoms: O3_3  and  C5_10 
REMARK    4  A    between atoms: C3_8  and  C8_13 
ROOT
HETATM    1  O1  UNK   900      33.281 -49.622 -60.796  1.00  0.00    -0.277 OA
HETATM    2  O4  UNK   900      35.446 -50.235 -60.647  1.00  0.00    -0.259 OA
HETATM    3  C1  UNK   900      32.464 -52.063 -59.704  1.00  0.00    -0.015 A 
HETATM    4  C2  UNK   900      33.826 -51.801 -59.888  1.00  0.00     0.083 A 
HETATM    5  C3  UNK   900      31.909 -49.904 -60.604  1.00  0.00     0.082 A 
HETATM    6  C4  UNK   900      31.481 -51.060 -60.084  1.00  0.00     0.047 A 
HETATM    7  C5  UNK   900      34.782 -52.757 -59.526  1.00  0.00     0.082 A 
HETATM    8  C6  UNK   900      32.065 -53.287 -59.157  1.00  0.00     0.012 A 
HETATM    9  C7  UNK   900      34.266 -50.510 -60.466  1.00  0.00     0.302 A 
HETATM   10  C9  UNK   900      34.375 -53.975 -58.981  1.00  0.00     0.037 A 
HETATM   11  C10 UNK   900      33.019 -54.240 -58.797  1.00  0.00     0.004 A 
ENDROOT
BRANCH   5  12
HETATM   12  C8  UNK   900      30.996 -48.803 -61.032  1.00  0.00     0.243 C 
BRANCH  12  13
HETATM   13  O2  UNK   900      30.253 -49.205 -62.170  1.00  0.00    -0.315 OA
BRANCH  13  14
HETATM   14  C11 UNK   900      30.942 -49.239 -63.354  1.00  0.00     0.255 C 
HETATM   15  O5  UNK   900      31.423 -50.235 -63.875  1.00  0.00    -0.266 OA
HETATM   16  C12 UNK   900      31.027 -47.861 -63.938  1.00  0.00     0.126 C 
ENDBRANCH  13  14
ENDBRANCH  12  13
ENDBRANCH   5  12
BRANCH   7  17
HETATM   17  O3  UNK   900      36.121 -52.557 -59.683  1.00  0.00    -0.360 OA
HETATM   18  H7  UNK   900      36.437 -52.971 -60.500  1.00  0.00     0.217 HD
ENDBRANCH   7  17
TORSDOF 4
ENDMDL
MODEL 3
REMARK VINA RESULT:      -6.4      2.241      6.395
REMARK  4 active torsions:
REMARK  status: ('A' for Active; 'I' for Inactive)
REMARK    1  A    between atoms: O2_2  and  C8_13 
REMARK    2  A    between atoms: O2_2  and  C11_16 
REMARK    3  A    between atoms: O3_3  and  C5_10 
REMARK    4  A    between atoms: C3_8  and  C8_13 
ROOT
HETATM    1  O1  UNK   900      30.557 -48.319 -64.467  1.00  0.00    -0.277 OA
HETATM    2  O4  UNK   900      31.647 -50.229 -63.968  1.00  0.00    -0.259 OA
HETATM    3  C1  UNK   900      30.601 -47.536 -61.783  1.00  0.00    -0.015 A 
HETATM    4  C2  UNK   900      31.177 -48.752 -62.165  1.00  0.00     0.083 A 
HETATM    5  C3  UNK   900      29.980 -47.093 -64.062  1.00  0.00     0.082 A 
HETATM    6  C4  UNK   900      29.982 -46.685 -62.788  1.00  0.00     0.047 A 
HETATM    7  C5  UNK   900      31.776 -49.579 -61.208  1.00  0.00     0.082 A 
HETATM    8  C6  UNK   900      30.628 -47.152 -60.437  1.00  0.00     0.012 A 
HETATM    9  C7  UNK   900      31.158 -49.173 -63.585  1.00  0.00     0.302 A 
HETATM   10  C9  UNK   900      31.799 -49.188 -59.869  1.00  0.00     0.037 A 
HETATM   11  C10 UNK   900      31.226 -47.977 -59.484  1.00  0.00     0.004 A 
ENDROOT
BRANCH   5  12
HETATM   12  C8  UNK   900      29.374 -46.309 -65.179  1.00  0.00     0.243 C 
BRANCH  12  13
HETATM   13  O2  UNK   900      29.712 -46.900 -66.423  1.00  0.00    -0.315 OA
BRANCH  13  14
HETATM   14  C11 UNK   900      28.659 -47.229 -67.236  1.00  0.00     0.255 C 
HETATM   15  O5  UNK   900      27.490 -47.324 -66.892  1.00  0.00    -0.266 OA
HETATM   16  C12 UNK   900      29.145 -47.460 -68.635  1.00  0.00     0.126 C 
ENDBRANCH  13  14
ENDBRANCH  12  13
ENDBRANCH   5  12
BRANCH   7  17
HETATM   17  O3  UNK   900      32.352 -50.774 -61.522  1.00  0.00    -0.360 OA
HETATM   18  H7  UNK   900      33.281 -50.653 -61.767  1.00  0.00     0.217 HD
ENDBRANCH   7  17
TORSDOF 4
ENDMDL
MODEL 4
REMARK VINA RESULT:      -6.4      3.014      6.514
REMARK  4 active torsions:
REMARK  status: ('A' for Active; 'I' for Inactive)
REMARK    1  A    between atoms: O2_2  and  C8_13 
REMARK    2  A    between atoms: O2_2  and  C11_16 
REMARK    3  A    between atoms: O3_3  and  C5_10 
REMARK    4  A    between atoms: C3_8  and  C8_13 
ROOT
HETATM    1  O1  UNK   900      29.221 -48.709 -62.656  1.00  0.00    -0.277 OA
HETATM    2  O4  UNK   900      29.034 -50.123 -60.911  1.00  0.00    -0.259 OA
HETATM    3  C1  UNK   900      31.011 -47.105 -61.228  1.00  0.00    -0.015 A 
HETATM    4  C2  UNK   900      30.477 -48.254 -60.636  1.00  0.00     0.083 A 
HETATM    5  C3  UNK   900      29.770 -47.543 -63.239  1.00  0.00     0.082 A 
HETATM    6  C4  UNK   900      30.629 -46.752 -62.587  1.00  0.00     0.047 A 
HETATM    7  C5  UNK   900      30.836 -48.605 -59.329  1.00  0.00     0.082 A 
HETATM    8  C6  UNK   900      31.906 -46.308 -60.505  1.00  0.00     0.012 A 
HETATM    9  C7  UNK   900      29.528 -49.109 -61.386  1.00  0.00     0.302 A 
HETATM   10  C9  UNK   900      31.730 -47.805 -58.616  1.00  0.00     0.037 A 
HETATM   11  C10 UNK   900      32.263 -46.659 -59.203  1.00  0.00     0.004 A 
ENDROOT
BRANCH   5  12
HETATM   12  C8  UNK   900      29.303 -47.284 -64.634  1.00  0.00     0.243 C 
BRANCH  12  13
HETATM   13  O2  UNK   900      28.932 -45.923 -64.774  1.00  0.00    -0.315 OA
BRANCH  13  14
HETATM   14  C11 UNK   900      29.381 -45.293 -65.905  1.00  0.00     0.255 C 
HETATM   15  O5  UNK   900      29.326 -44.092 -66.126  1.00  0.00    -0.266 OA
HETATM   16  C12 UNK   900      29.963 -46.296 -66.854  1.00  0.00     0.126 C 
ENDBRANCH  13  14
ENDBRANCH  12  13
ENDBRANCH   5  12
BRANCH   7  17
HETATM   17  O3  UNK   900      30.348 -49.712 -58.701  1.00  0.00    -0.360 OA
HETATM   18  H7  UNK   900      30.258 -50.448 -59.325  1.00  0.00     0.217 HD
ENDBRANCH   7  17
TORSDOF 4
ENDMDL
MODEL 5
REMARK VINA RESULT:      -6.3      3.171      6.686
REMARK  4 active torsions:
REMARK  status: ('A' for Active; 'I' for Inactive)
REMARK    1  A    between atoms: O2_2  and  C8_13 
REMARK    2  A    between atoms: O2_2  and  C11_16 
REMARK    3  A    between atoms: O3_3  and  C5_10 
REMARK    4  A    between atoms: C3_8  and  C8_13 
ROOT
HETATM    1  O1  UNK   900      30.033 -46.141 -62.555  1.00  0.00    -0.277 OA
HETATM    2  O4  UNK   900      30.872 -45.084 -60.749  1.00  0.00    -0.259 OA
HETATM    3  C1  UNK   900      31.046 -48.587 -61.655  1.00  0.00    -0.015 A 
HETATM    4  C2  UNK   900      31.251 -47.426 -60.902  1.00  0.00     0.083 A 
HETATM    5  C3  UNK   900      29.836 -47.324 -63.304  1.00  0.00     0.082 A 
HETATM    6  C4  UNK   900      30.305 -48.512 -62.905  1.00  0.00     0.047 A 
HETATM    7  C5  UNK   900      31.962 -47.485 -59.697  1.00  0.00     0.082 A 
HETATM    8  C6  UNK   900      31.557 -49.806 -61.197  1.00  0.00     0.012 A 
HETATM    9  C7  UNK   900      30.717 -46.127 -61.372  1.00  0.00     0.302 A 
HETATM   10  C9  UNK   900      32.467 -48.706 -59.248  1.00  0.00     0.037 A 
HETATM   11  C10 UNK   900      32.265 -49.864 -59.997  1.00  0.00     0.004 A 
ENDROOT
BRANCH   5  12
HETATM   12  C8  UNK   900      29.064 -47.122 -64.566  1.00  0.00     0.243 C 
BRANCH  12  13
HETATM   13  O2  UNK   900      29.888 -47.399 -65.686  1.00  0.00    -0.315 OA
BRANCH  13  14
HETATM   14  C11 UNK   900      29.348 -47.114 -66.913  1.00  0.00     0.255 C 
HETATM   15  O5  UNK   900      29.971 -46.981 -67.957  1.00  0.00    -0.266 OA
HETATM   16  C12 UNK   900      27.859 -46.985 -66.801  1.00  0.00     0.126 C 
ENDBRANCH  13  14
ENDBRANCH  12  13
ENDBRANCH   5  12
BRANCH   7  17
HETATM   17  O3  UNK   900      32.193 -46.388 -58.923  1.00  0.00    -0.360 OA
HETATM   18  H7  UNK   900      32.722 -45.734 -59.403  1.00  0.00     0.217 HD
ENDBRANCH   7  17
TORSDOF 4
ENDMDL
MODEL 6
REMARK VINA RESULT:      -6.0      3.286      6.854
REMARK  4 active torsions:
REMARK  status: ('A' for Active; 'I' for Inactive)
REMARK    1  A    between atoms: O2_2  and  C8_13 
REMARK    2  A    between atoms: O2_2  and  C11_16 
REMARK    3  A    between atoms: O3_3  and  C5_10 
REMARK    4  A    between atoms: C3_8  and  C8_13 
ROOT
HETATM    1  O1  UNK   900      31.753 -45.762 -61.855  1.00  0.00    -0.277 OA
HETATM    2  O4  UNK   900      32.452 -46.151 -59.747  1.00  0.00    -0.259 OA
HETATM    3  C1  UNK   900      30.205 -48.090 -61.824  1.00  0.00    -0.015 A 
HETATM    4  C2  UNK   900      30.955 -47.734 -60.698  1.00  0.00     0.083 A 
HETATM    5  C3  UNK   900      30.989 -46.136 -62.984  1.00  0.00     0.082 A 
HETATM    6  C4  UNK   900      30.237 -47.242 -63.006  1.00  0.00     0.047 A 
HETATM    7  C5  UNK   900      30.933 -48.541 -59.554  1.00  0.00     0.082 A 
HETATM    8  C6  UNK   900      29.433 -49.256 -61.799  1.00  0.00     0.012 A 
HETATM    9  C7  UNK   900      31.778 -46.503 -60.707  1.00  0.00     0.302 A 
HETATM   10  C9  UNK   900      30.160 -49.703 -59.538  1.00  0.00     0.037 A 
HETATM   11  C10 UNK   900      29.412 -50.060 -60.658  1.00  0.00     0.004 A 
ENDROOT
BRANCH   5  12
HETATM   12  C8  UNK   900      31.103 -45.192 -64.135  1.00  0.00     0.243 C 
BRANCH  12  13
HETATM   13  O2  UNK   900      29.892 -45.178 -64.871  1.00  0.00    -0.315 OA
BRANCH  13  14
HETATM   14  C11 UNK   900      30.019 -45.197 -66.235  1.00  0.00     0.255 C 
HETATM   15  O5  UNK   900      29.725 -46.130 -66.970  1.00  0.00    -0.266 OA
HETATM   16  C12 UNK   900      30.577 -43.892 -66.716  1.00  0.00     0.126 C 
ENDBRANCH  13  14
ENDBRANCH  12  13
ENDBRANCH   5  12
BRANCH   7  17
HETATM   17  O3  UNK   900      31.644 -48.246 -58.429  1.00  0.00    -0.360 OA
HETATM   18  H7  UNK   900      31.482 -48.906 -57.738  1.00  0.00     0.217 HD
ENDBRANCH   7  17
TORSDOF 4
ENDMDL
MODEL 7
REMARK VINA RESULT:      -5.9      2.186      6.291
REMARK  4 active torsions:
REMARK  status: ('A' for Active; 'I' for Inactive)
REMARK    1  A    between atoms: O2_2  and  C8_13 
REMARK    2  A    between atoms: O2_2  and  C11_16 
REMARK    3  A    between atoms: O3_3  and  C5_10 
REMARK    4  A    between atoms: C3_8  and  C8_13 
ROOT
HETATM    1  O1  UNK   900      32.216 -49.237 -60.784  1.00  0.00    -0.277 OA
HETATM    2  O4  UNK   900      31.286 -50.717 -59.359  1.00  0.00    -0.259 OA
HETATM    3  C1  UNK   900      34.590 -50.713 -60.843  1.00  0.00    -0.015 A 
HETATM    4  C2  UNK   900      33.515 -51.151 -60.064  1.00  0.00     0.083 A 
HETATM    5  C3  UNK   900      33.313 -48.809 -61.566  1.00  0.00     0.082 A 
HETATM    6  C4  UNK   900      34.464 -49.489 -61.620  1.00  0.00     0.047 A 
HETATM    7  C5  UNK   900      33.623 -52.327 -59.312  1.00  0.00     0.082 A 
HETATM    8  C6  UNK   900      35.774 -51.458 -60.867  1.00  0.00     0.012 A 
HETATM    9  C7  UNK   900      32.254 -50.375 -60.027  1.00  0.00     0.302 A 
HETATM   10  C9  UNK   900      34.808 -53.064 -59.342  1.00  0.00     0.037 A 
HETATM   11  C10 UNK   900      35.881 -52.630 -60.117  1.00  0.00     0.004 A 
ENDROOT
BRANCH   5  12
HETATM   12  C8  UNK   900      33.067 -47.542 -62.316  1.00  0.00     0.243 C 
BRANCH  12  13
HETATM   13  O2  UNK   900      33.330 -46.427 -61.481  1.00  0.00    -0.315 OA
BRANCH  13  14
HETATM   14  C11 UNK   900      32.237 -45.698 -61.093  1.00  0.00     0.255 C 
HETATM   15  O5  UNK   900      31.480 -45.089 -61.836  1.00  0.00    -0.266 OA
HETATM   16  C12 UNK   900      32.090 -45.747 -59.602  1.00  0.00     0.126 C 
ENDBRANCH  13  14
ENDBRANCH  12  13
ENDBRANCH   5  12
BRANCH   7  17
HETATM   17  O3  UNK   900      32.609 -52.802 -58.535  1.00  0.00    -0.360 OA
HETATM   18  H7  UNK   900      31.909 -53.188 -59.082  1.00  0.00     0.217 HD
ENDBRANCH   7  17
TORSDOF 4
ENDMDL
MODEL 8
REMARK VINA RESULT:      -5.8      7.271      8.802
REMARK  4 active torsions:
REMARK  status: ('A' for Active; 'I' for Inactive)
REMARK    1  A    between atoms: O2_2  and  C8_13 
REMARK    2  A    between atoms: O2_2  and  C11_16 
REMARK    3  A    between atoms: O3_3  and  C5_10 
REMARK    4  A    between atoms: C3_8  and  C8_13 
ROOT
HETATM    1  O1  UNK   900      32.251 -45.418 -66.909  1.00  0.00    -0.277 OA
HETATM    2  O4  UNK   900      31.073 -44.746 -65.108  1.00  0.00    -0.259 OA
HETATM    3  C1  UNK   900      30.036 -46.809 -67.899  1.00  0.00    -0.015 A 
HETATM    4  C2  UNK   900      29.940 -46.110 -66.691  1.00  0.00     0.083 A 
HETATM    5  C3  UNK   900      32.331 -46.130 -68.128  1.00  0.00     0.082 A 
HETATM    6  C4  UNK   900      31.293 -46.806 -68.633  1.00  0.00     0.047 A 
HETATM    7  C5  UNK   900      28.736 -46.104 -65.975  1.00  0.00     0.082 A 
HETATM    8  C6  UNK   900      28.923 -47.502 -68.386  1.00  0.00     0.012 A 
HETATM    9  C7  UNK   900      31.108 -45.371 -66.160  1.00  0.00     0.302 A 
HETATM   10  C9  UNK   900      27.631 -46.798 -66.470  1.00  0.00     0.037 A 
HETATM   11  C10 UNK   900      27.724 -47.495 -67.672  1.00  0.00     0.004 A 
ENDROOT
BRANCH   5  12
HETATM   12  C8  UNK   900      33.668 -46.056 -68.788  1.00  0.00     0.243 C 
BRANCH  12  13
HETATM   13  O2  UNK   900      33.935 -47.266 -69.477  1.00  0.00    -0.315 OA
BRANCH  13  14
HETATM   14  C11 UNK   900      34.745 -47.163 -70.577  1.00  0.00     0.255 C 
HETATM   15  O5  UNK   900      35.556 -47.999 -70.951  1.00  0.00    -0.266 OA
HETATM   16  C12 UNK   900      34.499 -45.860 -71.276  1.00  0.00     0.126 C 
ENDBRANCH  13  14
ENDBRANCH  12  13
ENDBRANCH   5  12
BRANCH   7  17
HETATM   17  O3  UNK   900      28.584 -45.442 -64.794  1.00  0.00    -0.360 OA
HETATM   18  H7  UNK   900      29.063 -44.599 -64.809  1.00  0.00     0.217 HD
ENDBRANCH   7  17
TORSDOF 4
ENDMDL
MODEL 9
REMARK VINA RESULT:      -5.8     30.627     32.702
REMARK  4 active torsions:
REMARK  status: ('A' for Active; 'I' for Inactive)
REMARK    1  A    between atoms: O2_2  and  C8_13 
REMARK    2  A    between atoms: O2_2  and  C11_16 
REMARK    3  A    between atoms: O3_3  and  C5_10 
REMARK    4  A    between atoms: C3_8  and  C8_13 
ROOT
HETATM    1  O1  UNK   900       7.976 -66.057 -50.247  1.00  0.00    -0.277 OA
HETATM    2  O4  UNK   900       9.890 -66.126 -49.057  1.00  0.00    -0.259 OA
HETATM    3  C1  UNK   900       7.858 -68.850 -50.311  1.00  0.00    -0.015 A 
HETATM    4  C2  UNK   900       8.915 -68.210 -49.655  1.00  0.00     0.083 A 
HETATM    5  C3  UNK   900       6.915 -66.720 -50.906  1.00  0.00     0.082 A 
HETATM    6  C4  UNK   900       6.825 -68.054 -50.957  1.00  0.00     0.047 A 
HETATM    7  C5  UNK   900       9.915 -68.964 -49.030  1.00  0.00     0.082 A 
HETATM    8  C6  UNK   900       7.807 -70.248 -50.338  1.00  0.00     0.012 A 
HETATM    9  C7  UNK   900       8.984 -66.731 -49.617  1.00  0.00     0.302 A 
HETATM   10  C9  UNK   900       9.855 -70.358 -49.061  1.00  0.00     0.037 A 
HETATM   11  C10 UNK   900       8.804 -70.998 -49.715  1.00  0.00     0.004 A 
ENDROOT
BRANCH   5  12
HETATM   12  C8  UNK   900       5.919 -65.800 -51.531  1.00  0.00     0.243 C 
BRANCH  12  13
HETATM   13  O2  UNK   900       4.645 -65.991 -50.939  1.00  0.00    -0.315 OA
BRANCH  13  14
HETATM   14  C11 UNK   900       3.567 -65.679 -51.724  1.00  0.00     0.255 C 
HETATM   15  O5  UNK   900       3.598 -65.032 -52.761  1.00  0.00    -0.266 OA
HETATM   16  C12 UNK   900       2.316 -66.250 -51.126  1.00  0.00     0.126 C 
ENDBRANCH  13  14
ENDBRANCH  12  13
ENDBRANCH   5  12
BRANCH   7  17
HETATM   17  O3  UNK   900      10.967 -68.396 -48.377  1.00  0.00    -0.360 OA
HETATM   18  H7  UNK   900      11.256 -68.956 -47.640  1.00  0.00     0.217 HD
ENDBRANCH   7  17
TORSDOF 4
ENDMDL
