MODEL 1
REMARK VINA RESULT:      -5.7      0.000      0.000
REMARK  5 active torsions:
REMARK  status: ('A' for Active; 'I' for Inactive)
REMARK    1  A    between atoms: O3_3  and  C1_6 
REMARK    2  A    between atoms: O4_4  and  C4_9 
REMARK    3  A    between atoms: O5_5  and  C7_12 
REMARK    4  A    between atoms: C1_6  and  C2_7 
REMARK    5  A    between atoms: C1_6  and  C4_9 
ROOT
HETATM    1  O1  UNK   900      30.788 -50.019 -59.568  1.00  0.00    -0.317 OA
HETATM    2  O2  UNK   900      32.152 -51.888 -58.902  1.00  0.00    -0.320 OA
HETATM    3  C2  UNK   900      34.119 -50.827 -60.660  1.00  0.00    -0.006 C 
HETATM    4  C3  UNK   900      32.889 -50.296 -60.625  1.00  0.00     0.042 C 
HETATM    5  C5  UNK   900      31.740 -51.033 -59.980  1.00  0.00     0.310 C 
HETATM    6  C7  UNK   900      32.324 -49.030 -60.968  1.00  0.00     0.108 C 
HETATM    7  C8  UNK   900      34.260 -52.133 -60.034  1.00  0.00     0.043 C 
HETATM    8  C9  UNK   900      31.149 -48.912 -60.349  1.00  0.00     0.080 C 
HETATM    9  C10 UNK   900      33.323 -52.587 -59.177  1.00  0.00     0.046 C 
HETATM   10  C12 UNK   900      30.195 -47.773 -60.351  1.00  0.00     0.079 C 
HETATM   11  C13 UNK   900      33.457 -53.872 -58.427  1.00  0.00     0.076 C 
ENDROOT
BRANCH   3  12
HETATM   12  C1  UNK   900      35.362 -50.213 -61.221  1.00  0.00     0.107 C 
HETATM   13  C6  UNK   900      36.442 -51.295 -61.364  1.00  0.00     0.054 C 
BRANCH  12  14
HETATM   14  O3  UNK   900      35.094 -49.749 -62.552  1.00  0.00    -0.383 OA
HETATM   15  H10 UNK   900      34.209 -50.047 -62.819  1.00  0.00     0.211 HD
ENDBRANCH  12  14
BRANCH  12  16
HETATM   16  C4  UNK   900      35.877 -49.014 -60.383  1.00  0.00     0.152 C 
HETATM   17  C11 UNK   900      37.362 -49.079 -60.032  1.00  0.00     0.042 C 
BRANCH  16  18
HETATM   18  O4  UNK   900      35.655 -47.782 -61.067  1.00  0.00    -0.393 OA
HETATM   19  H11 UNK   900      34.818 -47.860 -61.556  1.00  0.00     0.210 HD
ENDBRANCH  16  18
ENDBRANCH  12  16
ENDBRANCH   3  12
BRANCH   6  20
HETATM   20  O5  UNK   900      32.974 -48.155 -61.776  1.00  0.00    -0.353 OA
HETATM   21  C14 UNK   900      32.356 -48.063 -63.053  1.00  0.00     0.210 C 
ENDBRANCH   6  20
TORSDOF 5
ENDMDL
MODEL 2
REMARK VINA RESULT:      -5.4     13.964     15.809
REMARK  5 active torsions:
REMARK  status: ('A' for Active; 'I' for Inactive)
REMARK    1  A    between atoms: O3_3  and  C1_6 
REMARK    2  A    between atoms: O4_4  and  C4_9 
REMARK    3  A    between atoms: O5_5  and  C7_12 
REMARK    4  A    between atoms: C1_6  and  C2_7 
REMARK    5  A    between atoms: C1_6  and  C4_9 
ROOT
HETATM    1  O1  UNK   900      34.021 -32.825 -59.022  1.00  0.00    -0.317 OA
HETATM    2  O2  UNK   900      32.861 -34.816 -58.325  1.00  0.00    -0.320 OA
HETATM    3  C2  UNK   900      35.404 -35.766 -57.481  1.00  0.00    -0.006 C 
HETATM    4  C3  UNK   900      35.308 -34.623 -58.172  1.00  0.00     0.042 C 
HETATM    5  C5  UNK   900      34.047 -34.273 -58.926  1.00  0.00     0.310 C 
HETATM    6  C7  UNK   900      36.119 -33.458 -58.319  1.00  0.00     0.108 C 
HETATM    7  C8  UNK   900      34.224 -36.618 -57.501  1.00  0.00     0.043 C 
HETATM    8  C9  UNK   900      35.359 -32.470 -58.792  1.00  0.00     0.080 C 
HETATM    9  C10 UNK   900      33.028 -36.121 -57.873  1.00  0.00     0.046 C 
HETATM   10  C12 UNK   900      35.721 -31.058 -59.079  1.00  0.00     0.079 C 
HETATM   11  C13 UNK   900      31.762 -36.914 -57.822  1.00  0.00     0.076 C 
ENDROOT
BRANCH   3  12
HETATM   12  C1  UNK   900      36.559 -36.238 -56.656  1.00  0.00     0.107 C 
HETATM   13  C6  UNK   900      37.602 -36.894 -57.572  1.00  0.00     0.054 C 
BRANCH  12  14
HETATM   14  O3  UNK   900      37.211 -35.100 -56.072  1.00  0.00    -0.383 OA
HETATM   15  H10 UNK   900      38.113 -35.350 -55.812  1.00  0.00     0.211 HD
ENDBRANCH  12  14
BRANCH  12  16
HETATM   16  C4  UNK   900      36.136 -37.196 -55.512  1.00  0.00     0.152 C 
HETATM   17  C11 UNK   900      37.185 -38.244 -55.143  1.00  0.00     0.042 C 
BRANCH  16  18
HETATM   18  O4  UNK   900      35.829 -36.466 -54.325  1.00  0.00    -0.393 OA
HETATM   19  H11 UNK   900      36.643 -36.397 -53.798  1.00  0.00     0.210 HD
ENDBRANCH  16  18
ENDBRANCH  12  16
ENDBRANCH   3  12
BRANCH   6  20
HETATM   20  O5  UNK   900      37.433 -33.457 -57.977  1.00  0.00    -0.353 OA
HETATM   21  C14 UNK   900      38.271 -33.616 -59.114  1.00  0.00     0.210 C 
ENDBRANCH   6  20
TORSDOF 5
ENDMDL
MODEL 3
REMARK VINA RESULT:      -4.7     41.920     43.000
REMARK  5 active torsions:
REMARK  status: ('A' for Active; 'I' for Inactive)
REMARK    1  A    between atoms: O3_3  and  C1_6 
REMARK    2  A    between atoms: O4_4  and  C4_9 
REMARK    3  A    between atoms: O5_5  and  C7_12 
REMARK    4  A    between atoms: C1_6  and  C2_7 
REMARK    5  A    between atoms: C1_6  and  C4_9 
ROOT
HETATM    1  O1  UNK   900      10.692 -48.806 -97.261  1.00  0.00    -0.317 OA
HETATM    2  O2  UNK   900       8.445 -48.253 -96.598  1.00  0.00    -0.320 OA
HETATM    3  C2  UNK   900       9.565 -45.892 -95.478  1.00  0.00    -0.006 C 
HETATM    4  C3  UNK   900      10.364 -46.853 -95.962  1.00  0.00     0.042 C 
HETATM    5  C5  UNK   900       9.835 -48.241 -96.236  1.00  0.00     0.310 C 
HETATM    6  C7  UNK   900      11.704 -46.903 -96.453  1.00  0.00     0.108 C 
HETATM    7  C8  UNK   900       8.180 -46.277 -95.254  1.00  0.00     0.043 C 
HETATM    8  C9  UNK   900      11.845 -48.010 -97.182  1.00  0.00     0.080 C 
HETATM    9  C10 UNK   900       7.675 -47.385 -95.832  1.00  0.00     0.046 C 
HETATM   10  C12 UNK   900      13.030 -48.496 -97.934  1.00  0.00     0.079 C 
HETATM   11  C13 UNK   900       6.238 -47.780 -95.722  1.00  0.00     0.076 C 
ENDROOT
BRANCH   3  12
HETATM   12  C1  UNK   900       9.922 -44.468 -95.192  1.00  0.00     0.107 C 
HETATM   13  C6  UNK   900       8.809 -43.826 -94.352  1.00  0.00     0.054 C 
BRANCH  12  14
HETATM   14  O3  UNK   900      11.100 -44.438 -94.372  1.00  0.00    -0.383 OA
HETATM   15  H10 UNK   900      11.452 -43.533 -94.356  1.00  0.00     0.211 HD
ENDBRANCH  12  14
BRANCH  12  16
HETATM   16  C4  UNK   900      10.202 -43.644 -96.476  1.00  0.00     0.152 C 
HETATM   17  C11 UNK   900       8.963 -43.342 -97.316  1.00  0.00     0.042 C 
BRANCH  16  18
HETATM   18  O4  UNK   900      10.813 -42.395 -96.155  1.00  0.00    -0.393 OA
HETATM   19  H11 UNK   900      10.651 -41.786 -96.895  1.00  0.00     0.210 HD
ENDBRANCH  16  18
ENDBRANCH  12  16
ENDBRANCH   3  12
BRANCH   6  20
HETATM   20  O5  UNK   900      12.598 -45.917 -96.184  1.00  0.00    -0.353 OA
HETATM   21  C14 UNK   900      13.006 -45.244 -97.368  1.00  0.00     0.210 C 
ENDBRANCH   6  20
TORSDOF 5
ENDMDL
MODEL 4
REMARK VINA RESULT:      -4.7     15.423     17.064
REMARK  5 active torsions:
REMARK  status: ('A' for Active; 'I' for Inactive)
REMARK    1  A    between atoms: O3_3  and  C1_6 
REMARK    2  A    between atoms: O4_4  and  C4_9 
REMARK    3  A    between atoms: O5_5  and  C7_12 
REMARK    4  A    between atoms: C1_6  and  C2_7 
REMARK    5  A    between atoms: C1_6  and  C4_9 
ROOT
HETATM    1  O1  UNK   900      40.305 -54.852 -43.933  1.00  0.00    -0.317 OA
HETATM    2  O2  UNK   900      41.236 -55.989 -45.838  1.00  0.00    -0.320 OA
HETATM    3  C2  UNK   900      41.696 -53.398 -46.914  1.00  0.00    -0.006 C 
HETATM    4  C3  UNK   900      40.994 -53.543 -45.782  1.00  0.00     0.042 C 
HETATM    5  C5  UNK   900      40.439 -54.888 -45.377  1.00  0.00     0.310 C 
HETATM    6  C7  UNK   900      40.686 -52.705 -44.669  1.00  0.00     0.108 C 
HETATM    7  C8  UNK   900      41.888 -54.610 -47.697  1.00  0.00     0.043 C 
HETATM    8  C9  UNK   900      40.310 -53.478 -43.650  1.00  0.00     0.080 C 
HETATM    9  C10 UNK   900      41.695 -55.822 -47.141  1.00  0.00     0.046 C 
HETATM   10  C12 UNK   900      39.927 -53.092 -42.267  1.00  0.00     0.079 C 
HETATM   11  C13 UNK   900      41.970 -57.103 -47.860  1.00  0.00     0.076 C 
ENDROOT
BRANCH   3  12
HETATM   12  C1  UNK   900      42.342 -52.153 -47.433  1.00  0.00     0.107 C 
HETATM   13  C6  UNK   900      42.930 -52.429 -48.825  1.00  0.00     0.054 C 
BRANCH  12  14
HETATM   14  O3  UNK   900      41.333 -51.150 -47.627  1.00  0.00    -0.383 OA
HETATM   15  H10 UNK   900      40.468 -51.520 -47.387  1.00  0.00     0.211 HD
ENDBRANCH  12  14
BRANCH  12  16
HETATM   16  C4  UNK   900      43.417 -51.582 -46.473  1.00  0.00     0.152 C 
HETATM   17  C11 UNK   900      44.831 -51.554 -47.051  1.00  0.00     0.042 C 
BRANCH  16  18
HETATM   18  O4  UNK   900      43.092 -50.249 -46.080  1.00  0.00    -0.393 OA
HETATM   19  H11 UNK   900      43.338 -50.147 -45.145  1.00  0.00     0.210 HD
ENDBRANCH  16  18
ENDBRANCH  12  16
ENDBRANCH   3  12
BRANCH   6  20
HETATM   20  O5  UNK   900      40.816 -51.355 -44.736  1.00  0.00    -0.353 OA
HETATM   21  C14 UNK   900      39.555 -50.713 -44.873  1.00  0.00     0.210 C 
ENDBRANCH   6  20
TORSDOF 5
ENDMDL
MODEL 5
REMARK VINA RESULT:      -4.6     31.101     33.455
REMARK  5 active torsions:
REMARK  status: ('A' for Active; 'I' for Inactive)
REMARK    1  A    between atoms: O3_3  and  C1_6 
REMARK    2  A    between atoms: O4_4  and  C4_9 
REMARK    3  A    between atoms: O5_5  and  C7_12 
REMARK    4  A    between atoms: C1_6  and  C2_7 
REMARK    5  A    between atoms: C1_6  and  C4_9 
ROOT
HETATM    1  O1  UNK   900      22.989 -20.767 -77.677  1.00  0.00    -0.317 OA
HETATM    2  O2  UNK   900      22.942 -23.070 -76.981  1.00  0.00    -0.320 OA
HETATM    3  C2  UNK   900      25.151 -22.408 -75.317  1.00  0.00    -0.006 C 
HETATM    4  C3  UNK   900      24.682 -21.517 -76.201  1.00  0.00     0.042 C 
HETATM    5  C5  UNK   900      23.762 -21.941 -77.321  1.00  0.00     0.310 C 
HETATM    6  C7  UNK   900      24.726 -20.095 -76.326  1.00  0.00     0.108 C 
HETATM    7  C8  UNK   900      24.706 -23.780 -75.508  1.00  0.00     0.043 C 
HETATM    8  C9  UNK   900      23.757 -19.714 -77.157  1.00  0.00     0.080 C 
HETATM    9  C10 UNK   900      23.632 -24.051 -76.276  1.00  0.00     0.046 C 
HETATM   10  C12 UNK   900      23.364 -18.345 -77.581  1.00  0.00     0.079 C 
HETATM   11  C13 UNK   900      23.065 -25.425 -76.431  1.00  0.00     0.076 C 
ENDROOT
BRANCH   3  12
HETATM   12  C1  UNK   900      26.031 -22.144 -74.137  1.00  0.00     0.107 C 
HETATM   13  C6  UNK   900      26.660 -23.464 -73.670  1.00  0.00     0.054 C 
BRANCH  12  14
HETATM   14  O3  UNK   900      27.126 -21.313 -74.549  1.00  0.00    -0.383 OA
HETATM   15  H10 UNK   900      26.848 -20.774 -75.307  1.00  0.00     0.211 HD
ENDBRANCH  12  14
BRANCH  12  16
HETATM   16  C4  UNK   900      25.291 -21.433 -72.975  1.00  0.00     0.152 C 
HETATM   17  C11 UNK   900      24.453 -22.361 -72.097  1.00  0.00     0.042 C 
BRANCH  16  18
HETATM   18  O4  UNK   900      26.214 -20.758 -72.121  1.00  0.00    -0.393 OA
HETATM   19  H11 UNK   900      25.702 -20.290 -71.441  1.00  0.00     0.210 HD
ENDBRANCH  16  18
ENDBRANCH  12  16
ENDBRANCH   3  12
BRANCH   6  20
HETATM   20  O5  UNK   900      25.631 -19.348 -75.643  1.00  0.00    -0.353 OA
HETATM   21  C14 UNK   900      24.996 -18.469 -74.724  1.00  0.00     0.210 C 
ENDBRANCH   6  20
TORSDOF 5
ENDMDL
MODEL 6
REMARK VINA RESULT:      -4.2     17.096     18.901
REMARK  5 active torsions:
REMARK  status: ('A' for Active; 'I' for Inactive)
REMARK    1  A    between atoms: O3_3  and  C1_6 
REMARK    2  A    between atoms: O4_4  and  C4_9 
REMARK    3  A    between atoms: O5_5  and  C7_12 
REMARK    4  A    between atoms: C1_6  and  C2_7 
REMARK    5  A    between atoms: C1_6  and  C4_9 
ROOT
HETATM    1  O1  UNK   900      35.539 -29.342 -58.795  1.00  0.00    -0.317 OA
HETATM    2  O2  UNK   900      34.750 -31.533 -58.187  1.00  0.00    -0.320 OA
HETATM    3  C2  UNK   900      36.524 -32.511 -60.181  1.00  0.00    -0.006 C 
HETATM    4  C3  UNK   900      36.323 -31.193 -60.046  1.00  0.00     0.042 C 
HETATM    5  C5  UNK   900      35.152 -30.661 -59.255  1.00  0.00     0.310 C 
HETATM    6  C7  UNK   900      37.058 -30.017 -60.387  1.00  0.00     0.108 C 
HETATM    7  C8  UNK   900      35.557 -33.369 -59.514  1.00  0.00     0.043 C 
HETATM    8  C9  UNK   900      36.592 -29.003 -59.658  1.00  0.00     0.080 C 
HETATM    9  C10 UNK   900      34.757 -32.876 -58.547  1.00  0.00     0.046 C 
HETATM   10  C12 UNK   900      37.045 -27.589 -59.615  1.00  0.00     0.079 C 
HETATM   11  C13 UNK   900      33.814 -33.724 -57.757  1.00  0.00     0.076 C 
ENDROOT
BRANCH   3  12
HETATM   12  C1  UNK   900      37.650 -33.193 -60.892  1.00  0.00     0.107 C 
HETATM   13  C6  UNK   900      37.418 -34.711 -60.868  1.00  0.00     0.054 C 
BRANCH  12  14
HETATM   14  O3  UNK   900      37.624 -32.815 -62.277  1.00  0.00    -0.383 OA
HETATM   15  H10 UNK   900      38.488 -32.445 -62.521  1.00  0.00     0.211 HD
ENDBRANCH  12  14
BRANCH  12  16
HETATM   16  C4  UNK   900      39.042 -32.829 -60.314  1.00  0.00     0.152 C 
HETATM   17  C11 UNK   900      39.771 -33.989 -59.640  1.00  0.00     0.042 C 
BRANCH  16  18
HETATM   18  O4  UNK   900      39.900 -32.323 -61.336  1.00  0.00    -0.393 OA
HETATM   19  H11 UNK   900      39.995 -31.365 -61.198  1.00  0.00     0.210 HD
ENDBRANCH  16  18
ENDBRANCH  12  16
ENDBRANCH   3  12
BRANCH   6  20
HETATM   20  O5  UNK   900      38.065 -30.046 -61.296  1.00  0.00    -0.353 OA
HETATM   21  C14 UNK   900      37.645 -29.544 -62.559  1.00  0.00     0.210 C 
ENDBRANCH   6  20
TORSDOF 5
ENDMDL
MODEL 7
REMARK VINA RESULT:      -4.2     29.368     31.414
REMARK  5 active torsions:
REMARK  status: ('A' for Active; 'I' for Inactive)
REMARK    1  A    between atoms: O3_3  and  C1_6 
REMARK    2  A    between atoms: O4_4  and  C4_9 
REMARK    3  A    between atoms: O5_5  and  C7_12 
REMARK    4  A    between atoms: C1_6  and  C2_7 
REMARK    5  A    between atoms: C1_6  and  C4_9 
ROOT
HETATM    1  O1  UNK   900       6.425 -54.170 -80.695  1.00  0.00    -0.317 OA
HETATM    2  O2  UNK   900       8.370 -55.546 -80.351  1.00  0.00    -0.320 OA
HETATM    3  C2  UNK   900       8.983 -53.798 -78.194  1.00  0.00    -0.006 C 
HETATM    4  C3  UNK   900       7.969 -53.516 -79.023  1.00  0.00     0.042 C 
HETATM    5  C5  UNK   900       7.835 -54.214 -80.356  1.00  0.00     0.310 C 
HETATM    6  C7  UNK   900       6.781 -52.729 -78.936  1.00  0.00     0.108 C 
HETATM    7  C8  UNK   900       9.916 -54.813 -78.661  1.00  0.00     0.043 C 
HETATM    8  C9  UNK   900       5.938 -53.132 -79.887  1.00  0.00     0.080 C 
HETATM    9  C10 UNK   900       9.575 -55.647 -79.663  1.00  0.00     0.046 C 
HETATM   10  C12 UNK   900       4.562 -52.659 -80.188  1.00  0.00     0.079 C 
HETATM   11  C13 UNK   900      10.446 -56.772 -80.121  1.00  0.00     0.076 C 
ENDROOT
BRANCH   3  12
HETATM   12  C1  UNK   900       9.234 -53.229 -76.834  1.00  0.00     0.107 C 
HETATM   13  C6  UNK   900      10.643 -53.628 -76.370  1.00  0.00     0.054 C 
BRANCH  12  14
HETATM   14  O3  UNK   900       9.242 -51.797 -76.921  1.00  0.00    -0.383 OA
HETATM   15  H10 UNK   900       9.686 -51.433 -76.138  1.00  0.00     0.211 HD
ENDBRANCH  12  14
BRANCH  12  16
HETATM   16  C4  UNK   900       8.162 -53.648 -75.794  1.00  0.00     0.152 C 
HETATM   17  C11 UNK   900       8.713 -54.406 -74.588  1.00  0.00     0.042 C 
BRANCH  16  18
HETATM   18  O4  UNK   900       7.463 -52.507 -75.298  1.00  0.00    -0.393 OA
HETATM   19  H11 UNK   900       7.947 -52.177 -74.522  1.00  0.00     0.210 HD
ENDBRANCH  16  18
ENDBRANCH  12  16
ENDBRANCH   3  12
BRANCH   6  20
HETATM   20  O5  UNK   900       6.627 -51.773 -77.985  1.00  0.00    -0.353 OA
HETATM   21  C14 UNK   900       6.712 -50.466 -78.538  1.00  0.00     0.210 C 
ENDBRANCH   6  20
TORSDOF 5
ENDMDL
MODEL 8
REMARK VINA RESULT:      -4.2     24.489     27.466
REMARK  5 active torsions:
REMARK  status: ('A' for Active; 'I' for Inactive)
REMARK    1  A    between atoms: O3_3  and  C1_6 
REMARK    2  A    between atoms: O4_4  and  C4_9 
REMARK    3  A    between atoms: O5_5  and  C7_12 
REMARK    4  A    between atoms: C1_6  and  C2_7 
REMARK    5  A    between atoms: C1_6  and  C4_9 
ROOT
HETATM    1  O1  UNK   900      24.078 -56.436 -35.198  1.00  0.00    -0.317 OA
HETATM    2  O2  UNK   900      25.649 -56.726 -36.997  1.00  0.00    -0.320 OA
HETATM    3  C2  UNK   900      24.668 -59.389 -37.165  1.00  0.00    -0.006 C 
HETATM    4  C3  UNK   900      24.280 -58.589 -36.162  1.00  0.00     0.042 C 
HETATM    5  C5  UNK   900      25.031 -57.318 -35.845  1.00  0.00     0.310 C 
HETATM    6  C7  UNK   900      23.158 -58.544 -35.280  1.00  0.00     0.108 C 
HETATM    7  C8  UNK   900      25.833 -58.942 -37.914  1.00  0.00     0.043 C 
HETATM    8  C9  UNK   900      23.076 -57.318 -34.765  1.00  0.00     0.080 C 
HETATM    9  C10 UNK   900      26.246 -57.661 -37.837  1.00  0.00     0.046 C 
HETATM   10  C12 UNK   900      22.067 -56.755 -33.831  1.00  0.00     0.079 C 
HETATM   11  C13 UNK   900      27.371 -57.116 -38.655  1.00  0.00     0.076 C 
ENDROOT
BRANCH   3  12
HETATM   12  C1  UNK   900      24.015 -60.652 -37.629  1.00  0.00     0.107 C 
HETATM   13  C6  UNK   900      24.987 -61.423 -38.532  1.00  0.00     0.054 C 
BRANCH  12  14
HETATM   14  O3  UNK   900      23.779 -61.499 -36.494  1.00  0.00    -0.383 OA
HETATM   15  H10 UNK   900      24.630 -61.723 -36.083  1.00  0.00     0.211 HD
ENDBRANCH  12  14
BRANCH  12  16
HETATM   16  C4  UNK   900      22.660 -60.407 -38.343  1.00  0.00     0.152 C 
HETATM   17  C11 UNK   900      22.552 -59.056 -39.048  1.00  0.00     0.042 C 
BRANCH  16  18
HETATM   18  O4  UNK   900      22.410 -61.418 -39.318  1.00  0.00    -0.393 OA
HETATM   19  H11 UNK   900      21.454 -61.595 -39.324  1.00  0.00     0.210 HD
ENDBRANCH  16  18
ENDBRANCH  12  16
ENDBRANCH   3  12
BRANCH   6  20
HETATM   20  O5  UNK   900      22.356 -59.623 -35.092  1.00  0.00    -0.353 OA
HETATM   21  C14 UNK   900      22.535 -60.190 -33.801  1.00  0.00     0.210 C 
ENDBRANCH   6  20
TORSDOF 5
ENDMDL
MODEL 9
REMARK VINA RESULT:      -4.1     25.984     28.233
REMARK  5 active torsions:
REMARK  status: ('A' for Active; 'I' for Inactive)
REMARK    1  A    between atoms: O3_3  and  C1_6 
REMARK    2  A    between atoms: O4_4  and  C4_9 
REMARK    3  A    between atoms: O5_5  and  C7_12 
REMARK    4  A    between atoms: C1_6  and  C2_7 
REMARK    5  A    between atoms: C1_6  and  C4_9 
ROOT
HETATM    1  O1  UNK   900      22.485 -55.843 -34.266  1.00  0.00    -0.317 OA
HETATM    2  O2  UNK   900      24.487 -56.371 -35.493  1.00  0.00    -0.320 OA
HETATM    3  C2  UNK   900      23.067 -58.639 -36.453  1.00  0.00    -0.006 C 
HETATM    4  C3  UNK   900      22.536 -57.866 -35.496  1.00  0.00     0.042 C 
HETATM    5  C5  UNK   900      23.386 -56.882 -34.728  1.00  0.00     0.310 C 
HETATM    6  C7  UNK   900      21.213 -57.605 -35.025  1.00  0.00     0.108 C 
HETATM    7  C8  UNK   900      24.490 -58.453 -36.697  1.00  0.00     0.043 C 
HETATM    8  C9  UNK   900      21.226 -56.459 -34.346  1.00  0.00     0.080 C 
HETATM    9  C10 UNK   900      25.121 -57.346 -36.256  1.00  0.00     0.046 C 
HETATM   10  C12 UNK   900      20.102 -55.738 -33.694  1.00  0.00     0.079 C 
HETATM   11  C13 UNK   900      26.554 -57.048 -36.558  1.00  0.00     0.076 C 
ENDROOT
BRANCH   3  12
HETATM   12  C1  UNK   900      22.360 -59.627 -37.326  1.00  0.00     0.107 C 
HETATM   13  C6  UNK   900      22.023 -60.879 -36.503  1.00  0.00     0.054 C 
BRANCH  12  14
HETATM   14  O3  UNK   900      21.099 -59.072 -37.730  1.00  0.00    -0.383 OA
HETATM   15  H10 UNK   900      21.159 -58.103 -37.714  1.00  0.00     0.211 HD
ENDBRANCH  12  14
BRANCH  12  16
HETATM   16  C4  UNK   900      23.162 -59.992 -38.601  1.00  0.00     0.152 C 
HETATM   17  C11 UNK   900      23.671 -61.432 -38.638  1.00  0.00     0.042 C 
BRANCH  16  18
HETATM   18  O4  UNK   900      22.373 -59.790 -39.773  1.00  0.00    -0.393 OA
HETATM   19  H11 UNK   900      21.616 -60.399 -39.731  1.00  0.00     0.210 HD
ENDBRANCH  16  18
ENDBRANCH  12  16
ENDBRANCH   3  12
BRANCH   6  20
HETATM   20  O5  UNK   900      20.180 -58.440 -35.305  1.00  0.00    -0.353 OA
HETATM   21  C14 UNK   900      19.824 -59.229 -34.177  1.00  0.00     0.210 C 
ENDBRANCH   6  20
TORSDOF 5
ENDMDL
