MODEL 1
REMARK VINA RESULT:      -7.9      0.000      0.000
REMARK  1 active torsions:
REMARK  status: ('A' for Active; 'I' for Inactive)
REMARK    1  A    between atoms: O1_1  and  C9_10 
ROOT
HETATM    1  C1  UNK   900      23.967 -35.174 -67.458  1.00  0.00    -0.005 C 
HETATM    2  C2  UNK   900      22.703 -34.718 -66.654  1.00  0.00    -0.002 C 
HETATM    3  C3  UNK   900      24.475 -36.506 -66.825  1.00  0.00     0.007 C 
HETATM    4  C4  UNK   900      23.684 -36.715 -65.514  1.00  0.00    -0.042 C 
HETATM    5  C5  UNK   900      22.356 -35.980 -65.813  1.00  0.00     0.022 C 
HETATM    6  C6  UNK   900      25.211 -34.261 -67.477  1.00  0.00    -0.005 C 
HETATM    7  C7  UNK   900      26.005 -36.404 -66.760  1.00  0.00     0.007 C 
HETATM    8  C8  UNK   900      26.361 -35.251 -67.694  1.00  0.00     0.006 C 
HETATM    9  C9  UNK   900      21.595 -34.463 -67.726  1.00  0.00     0.150 C 
HETATM   10  C10 UNK   900      23.401 -35.476 -68.829  1.00  0.00    -0.017 C 
HETATM   11  C11 UNK   900      22.866 -33.493 -65.742  1.00  0.00     0.019 C 
HETATM   12  C12 UNK   900      22.126 -35.109 -68.958  1.00  0.00     0.002 C 
HETATM   13  C13 UNK   900      24.366 -36.173 -64.248  1.00  0.00     0.015 C 
HETATM   14  C14 UNK   900      23.411 -38.212 -65.280  1.00  0.00     0.015 C 
HETATM   15  C15 UNK   900      25.216 -33.137 -68.505  1.00  0.00     0.011 C 
ENDROOT
BRANCH   9  16
HETATM   16  O1  UNK   900      21.390 -33.089 -68.025  1.00  0.00    -0.391 OA
HETATM   17  H24 UNK   900      20.438 -32.959 -68.182  1.00  0.00     0.210 HD
ENDBRANCH   9  16
TORSDOF 1
ENDMDL
MODEL 2
REMARK VINA RESULT:      -7.7      2.118      4.299
REMARK  1 active torsions:
REMARK  status: ('A' for Active; 'I' for Inactive)
REMARK    1  A    between atoms: O1_1  and  C9_10 
ROOT
HETATM    1  C1  UNK   900      22.387 -37.594 -66.723  1.00  0.00    -0.005 C 
HETATM    2  C2  UNK   900      22.314 -36.857 -68.103  1.00  0.00    -0.002 C 
HETATM    3  C3  UNK   900      23.760 -38.330 -66.651  1.00  0.00     0.007 C 
HETATM    4  C4  UNK   900      24.393 -38.244 -68.058  1.00  0.00    -0.042 C 
HETATM    5  C5  UNK   900      23.783 -36.937 -68.613  1.00  0.00     0.022 C 
HETATM    6  C6  UNK   900      21.348 -38.690 -66.405  1.00  0.00    -0.005 C 
HETATM    7  C7  UNK   900      23.484 -39.713 -66.045  1.00  0.00     0.007 C 
HETATM    8  C8  UNK   900      22.095 -39.597 -65.422  1.00  0.00     0.006 C 
HETATM    9  C9  UNK   900      21.939 -35.378 -67.769  1.00  0.00     0.150 C 
HETATM   10  C10 UNK   900      22.400 -36.449 -65.734  1.00  0.00    -0.017 C 
HETATM   11  C11 UNK   900      21.351 -37.438 -69.149  1.00  0.00     0.019 C 
HETATM   12  C12 UNK   900      22.177 -35.265 -66.304  1.00  0.00     0.002 C 
HETATM   13  C13 UNK   900      24.109 -39.444 -68.975  1.00  0.00     0.015 C 
HETATM   14  C14 UNK   900      25.923 -38.102 -67.954  1.00  0.00     0.015 C 
HETATM   15  C15 UNK   900      20.008 -38.220 -65.852  1.00  0.00     0.011 C 
ENDROOT
BRANCH   9  16
HETATM   16  O1  UNK   900      20.572 -35.066 -67.999  1.00  0.00    -0.391 OA
HETATM   17  H24 UNK   900      20.414 -34.163 -67.670  1.00  0.00     0.210 HD
ENDBRANCH   9  16
TORSDOF 1
ENDMDL
MODEL 3
REMARK VINA RESULT:      -7.7      4.318      5.455
REMARK  1 active torsions:
REMARK  status: ('A' for Active; 'I' for Inactive)
REMARK    1  A    between atoms: O1_1  and  C9_10 
ROOT
HETATM    1  C1  UNK   900      23.287 -39.272 -69.798  1.00  0.00    -0.005 C 
HETATM    2  C2  UNK   900      22.240 -38.381 -70.548  1.00  0.00    -0.002 C 
HETATM    3  C3  UNK   900      22.515 -40.452 -69.132  1.00  0.00     0.007 C 
HETATM    4  C4  UNK   900      21.008 -40.140 -69.267  1.00  0.00    -0.042 C 
HETATM    5  C5  UNK   900      20.966 -39.275 -70.549  1.00  0.00     0.022 C 
HETATM    6  C6  UNK   900      24.108 -38.654 -68.647  1.00  0.00    -0.005 C 
HETATM    7  C7  UNK   900      23.113 -40.630 -67.729  1.00  0.00     0.007 C 
HETATM    8  C8  UNK   900      24.433 -39.865 -67.767  1.00  0.00     0.006 C 
HETATM    9  C9  UNK   900      22.789 -38.222 -72.002  1.00  0.00     0.150 C 
HETATM   10  C10 UNK   900      24.128 -39.823 -70.930  1.00  0.00    -0.017 C 
HETATM   11  C11 UNK   900      21.931 -37.008 -69.931  1.00  0.00     0.019 C 
HETATM   12  C12 UNK   900      23.843 -39.269 -72.108  1.00  0.00     0.002 C 
HETATM   13  C13 UNK   900      20.382 -39.413 -68.066  1.00  0.00     0.015 C 
HETATM   14  C14 UNK   900      20.205 -41.435 -69.485  1.00  0.00     0.015 C 
HETATM   15  C15 UNK   900      25.358 -37.876 -69.041  1.00  0.00     0.011 C 
ENDROOT
BRANCH   9  16
HETATM   16  O1  UNK   900      23.413 -36.970 -72.247  1.00  0.00    -0.391 OA
HETATM   17  H24 UNK   900      23.030 -36.321 -71.630  1.00  0.00     0.210 HD
ENDBRANCH   9  16
TORSDOF 1
ENDMDL
MODEL 4
REMARK VINA RESULT:      -7.7      4.457      5.387
REMARK  1 active torsions:
REMARK  status: ('A' for Active; 'I' for Inactive)
REMARK    1  A    between atoms: O1_1  and  C9_10 
ROOT
HETATM    1  C1  UNK   900      23.419 -39.271 -70.063  1.00  0.00    -0.005 C 
HETATM    2  C2  UNK   900      21.893 -39.592 -70.207  1.00  0.00    -0.002 C 
HETATM    3  C3  UNK   900      24.039 -40.340 -69.112  1.00  0.00     0.007 C 
HETATM    4  C4  UNK   900      22.866 -41.136 -68.499  1.00  0.00    -0.042 C 
HETATM    5  C5  UNK   900      21.782 -41.019 -69.595  1.00  0.00     0.022 C 
HETATM    6  C6  UNK   900      23.844 -37.920 -69.450  1.00  0.00    -0.005 C 
HETATM    7  C7  UNK   900      24.996 -39.589 -68.175  1.00  0.00     0.007 C 
HETATM    8  C8  UNK   900      25.216 -38.234 -68.843  1.00  0.00     0.006 C 
HETATM    9  C9  UNK   900      21.618 -39.641 -71.744  1.00  0.00     0.150 C 
HETATM   10  C10 UNK   900      23.943 -39.507 -71.462  1.00  0.00    -0.017 C 
HETATM   11  C11 UNK   900      20.914 -38.634 -69.511  1.00  0.00     0.019 C 
HETATM   12  C12 UNK   900      22.975 -39.722 -72.353  1.00  0.00     0.002 C 
HETATM   13  C13 UNK   900      22.365 -40.618 -67.141  1.00  0.00     0.015 C 
HETATM   14  C14 UNK   900      23.257 -42.613 -68.307  1.00  0.00     0.015 C 
HETATM   15  C15 UNK   900      23.892 -36.727 -70.396  1.00  0.00     0.011 C 
ENDROOT
BRANCH   9  16
HETATM   16  O1  UNK   900      20.997 -38.470 -72.255  1.00  0.00    -0.391 OA
HETATM   17  H24 UNK   900      21.484 -37.701 -71.910  1.00  0.00     0.210 HD
ENDBRANCH   9  16
TORSDOF 1
ENDMDL
MODEL 5
REMARK VINA RESULT:      -7.6      2.462      3.499
REMARK  1 active torsions:
REMARK  status: ('A' for Active; 'I' for Inactive)
REMARK    1  A    between atoms: O1_1  and  C9_10 
ROOT
HETATM    1  C1  UNK   900      22.618 -36.819 -67.878  1.00  0.00    -0.005 C 
HETATM    2  C2  UNK   900      21.192 -37.336 -68.268  1.00  0.00    -0.002 C 
HETATM    3  C3  UNK   900      23.649 -37.911 -68.299  1.00  0.00     0.007 C 
HETATM    4  C4  UNK   900      22.841 -39.164 -68.703  1.00  0.00    -0.042 C 
HETATM    5  C5  UNK   900      21.507 -38.551 -69.189  1.00  0.00     0.022 C 
HETATM    6  C6  UNK   900      22.934 -36.545 -66.393  1.00  0.00    -0.005 C 
HETATM    7  C7  UNK   900      24.662 -38.020 -67.150  1.00  0.00     0.007 C 
HETATM    8  C8  UNK   900      24.450 -36.758 -66.319  1.00  0.00     0.006 C 
HETATM    9  C9  UNK   900      20.542 -36.184 -69.099  1.00  0.00     0.150 C 
HETATM   10  C10 UNK   900      22.795 -35.616 -68.780  1.00  0.00    -0.017 C 
HETATM   11  C11 UNK   900      20.270 -37.761 -67.116  1.00  0.00     0.019 C 
HETATM   12  C12 UNK   900      21.684 -35.293 -69.443  1.00  0.00     0.002 C 
HETATM   13  C13 UNK   900      22.624 -40.191 -67.580  1.00  0.00     0.015 C 
HETATM   14  C14 UNK   900      23.531 -39.900 -69.866  1.00  0.00     0.015 C 
HETATM   15  C15 UNK   900      22.516 -35.186 -65.846  1.00  0.00     0.011 C 
ENDROOT
BRANCH   9  16
HETATM   16  O1  UNK   900      19.606 -35.405 -68.367  1.00  0.00    -0.391 OA
HETATM   17  H24 UNK   900      19.867 -35.430 -67.430  1.00  0.00     0.210 HD
ENDBRANCH   9  16
TORSDOF 1
ENDMDL
MODEL 6
REMARK VINA RESULT:      -7.5      4.339      5.410
REMARK  1 active torsions:
REMARK  status: ('A' for Active; 'I' for Inactive)
REMARK    1  A    between atoms: O1_1  and  C9_10 
ROOT
HETATM    1  C1  UNK   900      22.311 -39.997 -68.802  1.00  0.00    -0.005 C 
HETATM    2  C2  UNK   900      20.949 -39.259 -69.028  1.00  0.00    -0.002 C 
HETATM    3  C3  UNK   900      22.704 -39.817 -67.303  1.00  0.00     0.007 C 
HETATM    4  C4  UNK   900      21.728 -38.782 -66.701  1.00  0.00    -0.042 C 
HETATM    5  C5  UNK   900      20.467 -38.973 -67.576  1.00  0.00     0.022 C 
HETATM    6  C6  UNK   900      23.556 -39.527 -69.584  1.00  0.00    -0.005 C 
HETATM    7  C7  UNK   900      24.210 -39.517 -67.280  1.00  0.00     0.007 C 
HETATM    8  C8  UNK   900      24.713 -39.926 -68.661  1.00  0.00     0.006 C 
HETATM    9  C9  UNK   900      20.013 -40.308 -69.710  1.00  0.00     0.150 C 
HETATM   10  C10 UNK   900      21.948 -41.448 -69.034  1.00  0.00    -0.017 C 
HETATM   11  C11 UNK   900      20.992 -37.959 -69.844  1.00  0.00     0.019 C 
HETATM   12  C12 UNK   900      20.710 -41.607 -69.503  1.00  0.00     0.002 C 
HETATM   13  C13 UNK   900      22.224 -37.327 -66.723  1.00  0.00     0.015 C 
HETATM   14  C14 UNK   900      21.405 -39.132 -65.237  1.00  0.00     0.015 C 
HETATM   15  C15 UNK   900      23.725 -40.080 -70.993  1.00  0.00     0.011 C 
ENDROOT
BRANCH   9  16
HETATM   16  O1  UNK   900      19.871 -40.125 -71.112  1.00  0.00    -0.391 OA
HETATM   17  H24 UNK   900      19.908 -41.003 -71.531  1.00  0.00     0.210 HD
ENDBRANCH   9  16
TORSDOF 1
ENDMDL
MODEL 7
REMARK VINA RESULT:      -7.4      1.795      2.967
REMARK  1 active torsions:
REMARK  status: ('A' for Active; 'I' for Inactive)
REMARK    1  A    between atoms: O1_1  and  C9_10 
ROOT
HETATM    1  C1  UNK   900      23.622 -36.775 -68.572  1.00  0.00    -0.005 C 
HETATM    2  C2  UNK   900      23.680 -35.210 -68.578  1.00  0.00    -0.002 C 
HETATM    3  C3  UNK   900      24.313 -37.269 -67.264  1.00  0.00     0.007 C 
HETATM    4  C4  UNK   900      24.994 -36.041 -66.620  1.00  0.00    -0.042 C 
HETATM    5  C5  UNK   900      24.108 -34.876 -67.119  1.00  0.00     0.022 C 
HETATM    6  C6  UNK   900      24.332 -37.554 -69.698  1.00  0.00    -0.005 C 
HETATM    7  C7  UNK   900      25.178 -38.476 -67.656  1.00  0.00     0.007 C 
HETATM    8  C8  UNK   900      24.667 -38.893 -69.032  1.00  0.00     0.006 C 
HETATM    9  C9  UNK   900      22.213 -34.737 -68.831  1.00  0.00     0.150 C 
HETATM   10  C10 UNK   900      22.138 -37.054 -68.468  1.00  0.00    -0.017 C 
HETATM   11  C11 UNK   900      24.642 -34.556 -69.581  1.00  0.00     0.019 C 
HETATM   12  C12 UNK   900      21.392 -35.955 -68.591  1.00  0.00     0.002 C 
HETATM   13  C13 UNK   900      26.470 -35.840 -66.999  1.00  0.00     0.015 C 
HETATM   14  C14 UNK   900      24.925 -36.128 -65.084  1.00  0.00     0.015 C 
HETATM   15  C15 UNK   900      23.556 -37.735 -70.997  1.00  0.00     0.011 C 
ENDROOT
BRANCH   9  16
HETATM   16  O1  UNK   900      21.966 -34.320 -70.167  1.00  0.00    -0.391 OA
HETATM   17  H24 UNK   900      21.002 -34.295 -70.297  1.00  0.00     0.210 HD
ENDBRANCH   9  16
TORSDOF 1
ENDMDL
MODEL 8
REMARK VINA RESULT:      -7.4      1.495      2.795
REMARK  1 active torsions:
REMARK  status: ('A' for Active; 'I' for Inactive)
REMARK    1  A    between atoms: O1_1  and  C9_10 
ROOT
HETATM    1  C1  UNK   900      23.665 -35.511 -67.531  1.00  0.00    -0.005 C 
HETATM    2  C2  UNK   900      22.814 -36.150 -68.681  1.00  0.00    -0.002 C 
HETATM    3  C3  UNK   900      24.591 -36.625 -66.954  1.00  0.00     0.007 C 
HETATM    4  C4  UNK   900      24.129 -37.963 -67.572  1.00  0.00    -0.042 C 
HETATM    5  C5  UNK   900      23.529 -37.510 -68.923  1.00  0.00     0.022 C 
HETATM    6  C6  UNK   900      22.941 -34.936 -66.296  1.00  0.00    -0.005 C 
HETATM    7  C7  UNK   900      24.567 -36.465 -65.427  1.00  0.00     0.007 C 
HETATM    8  C8  UNK   900      23.990 -35.073 -65.188  1.00  0.00     0.006 C 
HETATM    9  C9  UNK   900      23.006 -35.211 -69.915  1.00  0.00     0.150 C 
HETATM   10  C10 UNK   900      24.522 -34.505 -68.269  1.00  0.00    -0.017 C 
HETATM   11  C11 UNK   900      21.321 -36.372 -68.396  1.00  0.00     0.019 C 
HETATM   12  C12 UNK   900      24.174 -34.364 -69.549  1.00  0.00     0.002 C 
HETATM   13  C13 UNK   900      23.114 -38.754 -66.731  1.00  0.00     0.015 C 
HETATM   14  C14 UNK   900      25.335 -38.888 -67.820  1.00  0.00     0.015 C 
HETATM   15  C15 UNK   900      22.411 -33.513 -66.416  1.00  0.00     0.011 C 
ENDROOT
BRANCH   9  16
HETATM   16  O1  UNK   900      21.910 -34.338 -70.150  1.00  0.00    -0.391 OA
HETATM   17  H24 UNK   900      22.216 -33.428 -69.993  1.00  0.00     0.210 HD
ENDBRANCH   9  16
TORSDOF 1
ENDMDL
MODEL 9
REMARK VINA RESULT:      -7.3      3.667      4.840
REMARK  1 active torsions:
REMARK  status: ('A' for Active; 'I' for Inactive)
REMARK    1  A    between atoms: O1_1  and  C9_10 
ROOT
HETATM    1  C1  UNK   900      22.487 -38.415 -68.087  1.00  0.00    -0.005 C 
HETATM    2  C2  UNK   900      21.415 -38.951 -67.079  1.00  0.00    -0.002 C 
HETATM    3  C3  UNK   900      22.323 -39.209 -69.419  1.00  0.00     0.007 C 
HETATM    4  C4  UNK   900      21.343 -40.369 -69.136  1.00  0.00    -0.042 C 
HETATM    5  C5  UNK   900      20.477 -39.795 -67.990  1.00  0.00     0.022 C 
HETATM    6  C6  UNK   900      23.982 -38.559 -67.737  1.00  0.00    -0.005 C 
HETATM    7  C7  UNK   900      23.740 -39.538 -69.909  1.00  0.00     0.007 C 
HETATM    8  C8  UNK   900      24.655 -38.612 -69.112  1.00  0.00     0.006 C 
HETATM    9  C9  UNK   900      20.662 -37.686 -66.555  1.00  0.00     0.150 C 
HETATM   10  C10 UNK   900      22.041 -36.987 -68.319  1.00  0.00    -0.017 C 
HETATM   11  C11 UNK   900      21.930 -39.800 -65.907  1.00  0.00     0.019 C 
HETATM   12  C12 UNK   900      21.053 -36.611 -67.508  1.00  0.00     0.002 C 
HETATM   13  C13 UNK   900      22.004 -41.700 -68.743  1.00  0.00     0.015 C 
HETATM   14  C14 UNK   900      20.461 -40.645 -70.368  1.00  0.00     0.015 C 
HETATM   15  C15 UNK   900      24.581 -37.480 -66.843  1.00  0.00     0.011 C 
ENDROOT
BRANCH   9  16
HETATM   16  O1  UNK   900      21.070 -37.270 -65.259  1.00  0.00    -0.391 OA
HETATM   17  H24 UNK   900      22.043 -37.247 -65.248  1.00  0.00     0.210 HD
ENDBRANCH   9  16
TORSDOF 1
ENDMDL
