MODEL 1
REMARK VINA RESULT:      -6.8      0.000      0.000
REMARK  5 active torsions:
REMARK  status: ('A' for Active; 'I' for Inactive)
REMARK    1  A    between atoms: O4_4  and  C16_22 
REMARK       I    between atoms: N1_5  and  C7_13 
REMARK    2  A    between atoms: C1_7  and  C6_12 
REMARK    3  A    between atoms: C2_8  and  C5_11 
REMARK    4  A    between atoms: C5_11  and  C8_14 
REMARK    5  A    between atoms: C6_12  and  C9_15 
ROOT
HETATM    1  O1  UNK   900      14.817 -63.179 -72.011  1.00  0.00    -0.274 OA
HETATM    2  N1  UNK   900      13.822 -62.598 -69.990  1.00  0.00    -0.344 N 
HETATM    3  N2  UNK   900      13.690 -62.864 -67.135  1.00  0.00     0.092 N 
HETATM    4  C1  UNK   900      12.889 -61.754 -69.214  1.00  0.00     0.119 C 
HETATM    5  C2  UNK   900      14.724 -63.581 -67.890  1.00  0.00     0.242 C 
HETATM    6  C3  UNK   900      14.263 -63.831 -69.331  1.00  0.00     0.162 C 
HETATM    7  C4  UNK   900      13.391 -61.581 -67.773  1.00  0.00     0.295 C 
HETATM    8  C7  UNK   900      14.160 -62.387 -71.330  1.00  0.00     0.216 C 
HETATM    9  C12 UNK   900      13.691 -61.095 -71.953  1.00  0.00     0.117 C 
HETATM   10  H7  UNK   900      14.018 -62.695 -66.184  1.00  0.00     0.316 HD
ENDROOT
BRANCH   5  11
HETATM   11  C5  UNK   900      15.035 -64.900 -67.188  1.00  0.00     0.076 C 
BRANCH  11  12
HETATM   12  C8  UNK   900      16.498 -65.020 -66.857  1.00  0.00    -0.051 A 
HETATM   13  C10 UNK   900      16.904 -65.835 -65.797  1.00  0.00     0.047 A 
HETATM   14  C15 UNK   900      18.256 -65.913 -65.531  1.00  0.00     0.108 A 
HETATM   15  O2  UNK   900      18.834 -66.650 -64.544  1.00  0.00    -0.323 OA
HETATM   16  C17 UNK   900      19.182 -65.219 -66.277  1.00  0.00     0.138 A 
HETATM   17  C21 UNK   900      20.228 -66.343 -64.751  1.00  0.00     0.352 A 
HETATM   18  O3  UNK   900      20.456 -65.434 -65.849  1.00  0.00    -0.320 OA
HETATM   19  C16 UNK   900      18.807 -64.409 -67.328  1.00  0.00     0.104 A 
HETATM   20  C11 UNK   900      17.443 -64.311 -67.619  1.00  0.00     0.047 A 
BRANCH  19  21
HETATM   21  O4  UNK   900      19.723 -63.726 -68.059  1.00  0.00    -0.353 OA
HETATM   22  C22 UNK   900      19.596 -63.781 -69.482  1.00  0.00     0.210 C 
ENDBRANCH  19  21
ENDBRANCH  11  12
ENDBRANCH   5  11
BRANCH   4  23
HETATM   23  C6  UNK   900      11.470 -62.329 -69.266  1.00  0.00     0.065 C 
BRANCH  23  24
HETATM   24  C9  UNK   900      10.567 -61.485 -70.121  1.00  0.00    -0.056 A 
HETATM   25  C13 UNK   900      10.630 -60.094 -70.041  1.00  0.00     0.007 A 
HETATM   26  C18 UNK   900       9.791 -59.312 -70.835  1.00  0.00     0.001 A 
HETATM   27  C20 UNK   900       8.889 -59.921 -71.707  1.00  0.00     0.000 A 
HETATM   28  C19 UNK   900       8.825 -61.311 -71.786  1.00  0.00     0.001 A 
HETATM   29  C14 UNK   900       9.665 -62.094 -70.993  1.00  0.00     0.007 A 
ENDBRANCH  23  24
ENDBRANCH   4  23
TORSDOF 5
ENDMDL
MODEL 2
REMARK VINA RESULT:      -6.7     35.486     37.950
REMARK  5 active torsions:
REMARK  status: ('A' for Active; 'I' for Inactive)
REMARK    1  A    between atoms: O4_4  and  C16_22 
REMARK       I    between atoms: N1_5  and  C7_13 
REMARK    2  A    between atoms: C1_7  and  C6_12 
REMARK    3  A    between atoms: C2_8  and  C5_11 
REMARK    4  A    between atoms: C5_11  and  C8_14 
REMARK    5  A    between atoms: C6_12  and  C9_15 
ROOT
HETATM    1  O1  UNK   900      39.986 -35.798 -56.787  1.00  0.00    -0.274 OA
HETATM    2  N1  UNK   900      37.879 -36.762 -56.987  1.00  0.00    -0.344 N 
HETATM    3  N2  UNK   900      35.117 -36.533 -57.735  1.00  0.00     0.092 N 
HETATM    4  C1  UNK   900      37.001 -37.951 -56.938  1.00  0.00     0.119 C 
HETATM    5  C2  UNK   900      36.027 -35.399 -57.936  1.00  0.00     0.242 C 
HETATM    6  C3  UNK   900      37.197 -35.465 -56.947  1.00  0.00     0.162 C 
HETATM    7  C4  UNK   900      35.830 -37.797 -57.920  1.00  0.00     0.295 C 
HETATM    8  C7  UNK   900      39.274 -36.799 -56.898  1.00  0.00     0.216 C 
HETATM    9  C12 UNK   900      39.922 -38.160 -56.959  1.00  0.00     0.117 C 
HETATM   10  H7  UNK   900      34.353 -36.479 -58.409  1.00  0.00     0.316 HD
ENDROOT
BRANCH   5  11
HETATM   11  C5  UNK   900      35.252 -34.096 -57.765  1.00  0.00     0.076 C 
BRANCH  11  12
HETATM   12  C8  UNK   900      35.724 -33.039 -58.725  1.00  0.00    -0.051 A 
HETATM   13  C10 UNK   900      36.535 -33.395 -59.805  1.00  0.00     0.047 A 
HETATM   14  C15 UNK   900      36.943 -32.390 -60.658  1.00  0.00     0.108 A 
HETATM   15  O2  UNK   900      37.732 -32.546 -61.756  1.00  0.00    -0.323 OA
HETATM   16  C17 UNK   900      36.571 -31.079 -60.464  1.00  0.00     0.138 A 
HETATM   17  C21 UNK   900      37.814 -31.187 -62.232  1.00  0.00     0.352 A 
HETATM   18  O3  UNK   900      37.080 -30.251 -61.416  1.00  0.00    -0.320 OA
HETATM   19  C16 UNK   900      35.770 -30.701 -59.406  1.00  0.00     0.104 A 
HETATM   20  C11 UNK   900      35.343 -31.700 -58.526  1.00  0.00     0.047 A 
BRANCH  19  21
HETATM   21  O4  UNK   900      35.406 -29.408 -59.217  1.00  0.00    -0.353 OA
HETATM   22  C22 UNK   900      34.147 -28.999 -59.755  1.00  0.00     0.210 C 
ENDBRANCH  19  21
ENDBRANCH  11  12
ENDBRANCH   5  11
BRANCH   4  23
HETATM   23  C6  UNK   900      36.522 -38.209 -55.505  1.00  0.00     0.065 C 
BRANCH  23  24
HETATM   24  C9  UNK   900      36.818 -39.617 -55.073  1.00  0.00    -0.056 A 
HETATM   25  C13 UNK   900      35.910 -40.638 -55.350  1.00  0.00     0.007 A 
HETATM   26  C18 UNK   900      36.186 -41.946 -54.948  1.00  0.00     0.001 A 
HETATM   27  C20 UNK   900      37.370 -42.231 -54.269  1.00  0.00     0.000 A 
HETATM   28  C19 UNK   900      38.278 -41.209 -53.991  1.00  0.00     0.001 A 
HETATM   29  C14 UNK   900      38.003 -39.902 -54.394  1.00  0.00     0.007 A 
ENDBRANCH  23  24
ENDBRANCH   4  23
TORSDOF 5
ENDMDL
MODEL 3
REMARK VINA RESULT:      -6.6     41.967     43.996
REMARK  5 active torsions:
REMARK  status: ('A' for Active; 'I' for Inactive)
REMARK    1  A    between atoms: O4_4  and  C16_22 
REMARK       I    between atoms: N1_5  and  C7_13 
REMARK    2  A    between atoms: C1_7  and  C6_12 
REMARK    3  A    between atoms: C2_8  and  C5_11 
REMARK    4  A    between atoms: C5_11  and  C8_14 
REMARK    5  A    between atoms: C6_12  and  C9_15 
ROOT
HETATM    1  O1  UNK   900      24.379 -18.153 -73.897  1.00  0.00    -0.274 OA
HETATM    2  N1  UNK   900      24.399 -20.086 -72.603  1.00  0.00    -0.344 N 
HETATM    3  N2  UNK   900      24.765 -21.346 -70.049  1.00  0.00     0.092 N 
HETATM    4  C1  UNK   900      24.129 -21.531 -72.449  1.00  0.00     0.119 C 
HETATM    5  C2  UNK   900      24.875 -19.887 -70.169  1.00  0.00     0.242 C 
HETATM    6  C3  UNK   900      25.282 -19.493 -71.593  1.00  0.00     0.162 C 
HETATM    7  C4  UNK   900      23.770 -21.860 -70.992  1.00  0.00     0.295 C 
HETATM    8  C7  UNK   900      24.019 -19.318 -73.707  1.00  0.00     0.216 C 
HETATM    9  C12 UNK   900      23.099 -19.976 -74.706  1.00  0.00     0.117 C 
HETATM   10  H7  UNK   900      24.482 -21.589 -69.100  1.00  0.00     0.316 HD
ENDROOT
BRANCH   5  11
HETATM   11  C5  UNK   900      25.897 -19.376 -69.157  1.00  0.00     0.076 C 
BRANCH  11  12
HETATM   12  C8  UNK   900      25.360 -19.427 -67.753  1.00  0.00    -0.051 A 
HETATM   13  C10 UNK   900      26.233 -19.648 -66.684  1.00  0.00     0.047 A 
HETATM   14  C15 UNK   900      25.693 -19.687 -65.415  1.00  0.00     0.108 A 
HETATM   15  O2  UNK   900      26.384 -19.890 -64.260  1.00  0.00    -0.323 OA
HETATM   16  C17 UNK   900      24.346 -19.514 -65.195  1.00  0.00     0.138 A 
HETATM   17  C21 UNK   900      25.321 -19.827 -63.288  1.00  0.00     0.352 A 
HETATM   18  O3  UNK   900      24.024 -19.589 -63.875  1.00  0.00    -0.320 OA
HETATM   19  C16 UNK   900      23.464 -19.295 -66.232  1.00  0.00     0.104 A 
HETATM   20  C11 UNK   900      23.984 -19.251 -67.528  1.00  0.00     0.047 A 
BRANCH  19  21
HETATM   21  O4  UNK   900      22.136 -19.127 -66.011  1.00  0.00    -0.353 OA
HETATM   22  C22 UNK   900      21.500 -18.023 -66.658  1.00  0.00     0.210 C 
ENDBRANCH  19  21
ENDBRANCH  11  12
ENDBRANCH   5  11
BRANCH   4  23
HETATM   23  C6  UNK   900      25.316 -22.360 -72.952  1.00  0.00     0.065 C 
BRANCH  23  24
HETATM   24  C9  UNK   900      24.924 -23.234 -74.109  1.00  0.00    -0.056 A 
HETATM   25  C13 UNK   900      23.611 -23.688 -74.227  1.00  0.00     0.007 A 
HETATM   26  C18 UNK   900      23.247 -24.501 -75.302  1.00  0.00     0.001 A 
HETATM   27  C20 UNK   900      24.198 -24.859 -76.257  1.00  0.00     0.000 A 
HETATM   28  C19 UNK   900      25.511 -24.406 -76.138  1.00  0.00     0.001 A 
HETATM   29  C14 UNK   900      25.875 -23.592 -75.064  1.00  0.00     0.007 A 
ENDBRANCH  23  24
ENDBRANCH   4  23
TORSDOF 5
ENDMDL
MODEL 4
REMARK VINA RESULT:      -6.5     33.759     36.849
REMARK  5 active torsions:
REMARK  status: ('A' for Active; 'I' for Inactive)
REMARK    1  A    between atoms: O4_4  and  C16_22 
REMARK       I    between atoms: N1_5  and  C7_13 
REMARK    2  A    between atoms: C1_7  and  C6_12 
REMARK    3  A    between atoms: C2_8  and  C5_11 
REMARK    4  A    between atoms: C5_11  and  C8_14 
REMARK    5  A    between atoms: C6_12  and  C9_15 
ROOT
HETATM    1  O1  UNK   900      40.162 -38.016 -54.324  1.00  0.00    -0.274 OA
HETATM    2  N1  UNK   900      39.891 -40.319 -54.140  1.00  0.00    -0.344 N 
HETATM    3  N2  UNK   900      38.492 -42.710 -54.893  1.00  0.00     0.092 N 
HETATM    4  C1  UNK   900      40.364 -41.633 -53.657  1.00  0.00     0.119 C 
HETATM    5  C2  UNK   900      38.124 -41.424 -55.499  1.00  0.00     0.242 C 
HETATM    6  C3  UNK   900      38.488 -40.265 -54.565  1.00  0.00     0.162 C 
HETATM    7  C4  UNK   900      39.928 -42.750 -54.616  1.00  0.00     0.295 C 
HETATM    8  C7  UNK   900      40.622 -39.130 -54.059  1.00  0.00     0.216 C 
HETATM    9  C12 UNK   900      42.063 -39.248 -53.630  1.00  0.00     0.117 C 
HETATM   10  H7  UNK   900      38.254 -43.468 -55.533  1.00  0.00     0.316 HD
ENDROOT
BRANCH   5  11
HETATM   11  C5  UNK   900      36.628 -41.421 -55.802  1.00  0.00     0.076 C 
BRANCH  11  12
HETATM   12  C8  UNK   900      36.180 -40.103 -56.371  1.00  0.00    -0.051 A 
HETATM   13  C10 UNK   900      36.769 -39.616 -57.541  1.00  0.00     0.047 A 
HETATM   14  C15 UNK   900      36.325 -38.402 -58.024  1.00  0.00     0.108 A 
HETATM   15  O2  UNK   900      36.780 -37.774 -59.142  1.00  0.00    -0.323 OA
HETATM   16  C17 UNK   900      35.337 -37.687 -57.387  1.00  0.00     0.138 A 
HETATM   17  C21 UNK   900      35.967 -36.582 -59.139  1.00  0.00     0.352 A 
HETATM   18  O3  UNK   900      35.049 -36.521 -58.026  1.00  0.00    -0.320 OA
HETATM   19  C16 UNK   900      34.739 -38.145 -56.232  1.00  0.00     0.104 A 
HETATM   20  C11 UNK   900      35.171 -39.372 -55.720  1.00  0.00     0.047 A 
BRANCH  19  21
HETATM   21  O4  UNK   900      33.766 -37.436 -55.606  1.00  0.00    -0.353 OA
HETATM   22  C22 UNK   900      32.413 -37.731 -55.960  1.00  0.00     0.210 C 
ENDBRANCH  19  21
ENDBRANCH  11  12
ENDBRANCH   5  11
BRANCH   4  23
HETATM   23  C6  UNK   900      39.886 -41.885 -52.222  1.00  0.00     0.065 C 
BRANCH  23  24
HETATM   24  C9  UNK   900      40.979 -42.471 -51.374  1.00  0.00    -0.056 A 
HETATM   25  C13 UNK   900      40.775 -43.680 -50.710  1.00  0.00     0.007 A 
HETATM   26  C18 UNK   900      41.791 -44.223 -49.922  1.00  0.00     0.001 A 
HETATM   27  C20 UNK   900      43.009 -43.556 -49.799  1.00  0.00     0.000 A 
HETATM   28  C19 UNK   900      43.213 -42.346 -50.463  1.00  0.00     0.001 A 
HETATM   29  C14 UNK   900      42.197 -41.803 -51.251  1.00  0.00     0.007 A 
ENDBRANCH  23  24
ENDBRANCH   4  23
TORSDOF 5
ENDMDL
MODEL 5
REMARK VINA RESULT:      -6.4     33.757     36.638
REMARK  5 active torsions:
REMARK  status: ('A' for Active; 'I' for Inactive)
REMARK    1  A    between atoms: O4_4  and  C16_22 
REMARK       I    between atoms: N1_5  and  C7_13 
REMARK    2  A    between atoms: C1_7  and  C6_12 
REMARK    3  A    between atoms: C2_8  and  C5_11 
REMARK    4  A    between atoms: C5_11  and  C8_14 
REMARK    5  A    between atoms: C6_12  and  C9_15 
ROOT
HETATM    1  O1  UNK   900      40.075 -38.199 -54.693  1.00  0.00    -0.274 OA
HETATM    2  N1  UNK   900      39.534 -40.446 -54.428  1.00  0.00    -0.344 N 
HETATM    3  N2  UNK   900      37.818 -42.664 -55.042  1.00  0.00     0.092 N 
HETATM    4  C1  UNK   900      39.868 -41.796 -53.927  1.00  0.00     0.119 C 
HETATM    5  C2  UNK   900      37.580 -41.358 -55.668  1.00  0.00     0.242 C 
HETATM    6  C3  UNK   900      38.130 -40.230 -54.787  1.00  0.00     0.162 C 
HETATM    7  C4  UNK   900      39.251 -42.874 -54.832  1.00  0.00     0.295 C 
HETATM    8  C7  UNK   900      40.408 -39.354 -54.416  1.00  0.00     0.216 C 
HETATM    9  C12 UNK   900      41.844 -39.639 -54.052  1.00  0.00     0.117 C 
HETATM   10  H7  UNK   900      37.458 -43.402 -55.647  1.00  0.00     0.316 HD
ENDROOT
BRANCH   5  11
HETATM   11  C5  UNK   900      36.083 -41.177 -55.901  1.00  0.00     0.076 C 
BRANCH  11  12
HETATM   12  C8  UNK   900      35.776 -39.850 -56.538  1.00  0.00    -0.051 A 
HETATM   13  C10 UNK   900      34.888 -38.970 -55.914  1.00  0.00     0.047 A 
HETATM   14  C15 UNK   900      34.638 -37.764 -56.537  1.00  0.00     0.108 A 
HETATM   15  O2  UNK   900      33.807 -36.788 -56.081  1.00  0.00    -0.323 OA
HETATM   16  C17 UNK   900      35.236 -37.427 -57.730  1.00  0.00     0.138 A 
HETATM   17  C21 UNK   900      33.948 -35.798 -57.121  1.00  0.00     0.352 A 
HETATM   18  O3  UNK   900      34.853 -36.198 -58.171  1.00  0.00    -0.320 OA
HETATM   19  C16 UNK   900      36.116 -38.278 -58.366  1.00  0.00     0.104 A 
HETATM   20  C11 UNK   900      36.387 -39.506 -57.756  1.00  0.00     0.047 A 
BRANCH  19  21
HETATM   21  O4  UNK   900      36.702 -37.943 -59.542  1.00  0.00    -0.353 OA
HETATM   22  C22 UNK   900      37.217 -39.009 -60.343  1.00  0.00     0.210 C 
ENDBRANCH  19  21
ENDBRANCH  11  12
ENDBRANCH   5  11
BRANCH   4  23
HETATM   23  C6  UNK   900      39.435 -41.953 -52.465  1.00  0.00     0.065 C 
BRANCH  23  24
HETATM   24  C9  UNK   900      40.607 -42.254 -51.575  1.00  0.00    -0.056 A 
HETATM   25  C13 UNK   900      40.886 -43.570 -51.210  1.00  0.00     0.007 A 
HETATM   26  C18 UNK   900      41.975 -43.849 -50.383  1.00  0.00     0.001 A 
HETATM   27  C20 UNK   900      42.784 -42.810 -49.921  1.00  0.00     0.000 A 
HETATM   28  C19 UNK   900      42.504 -41.493 -50.286  1.00  0.00     0.001 A 
HETATM   29  C14 UNK   900      41.415 -41.215 -51.114  1.00  0.00     0.007 A 
ENDBRANCH  23  24
ENDBRANCH   4  23
TORSDOF 5
ENDMDL
MODEL 6
REMARK VINA RESULT:      -6.3     32.765     37.046
REMARK  5 active torsions:
REMARK  status: ('A' for Active; 'I' for Inactive)
REMARK    1  A    between atoms: O4_4  and  C16_22 
REMARK       I    between atoms: N1_5  and  C7_13 
REMARK    2  A    between atoms: C1_7  and  C6_12 
REMARK    3  A    between atoms: C2_8  and  C5_11 
REMARK    4  A    between atoms: C5_11  and  C8_14 
REMARK    5  A    between atoms: C6_12  and  C9_15 
ROOT
HETATM    1  O1  UNK   900       7.460 -28.494 -74.465  1.00  0.00    -0.274 OA
HETATM    2  N1  UNK   900       9.636 -29.097 -75.024  1.00  0.00    -0.344 N 
HETATM    3  N2  UNK   900      11.758 -29.180 -76.955  1.00  0.00     0.092 N 
HETATM    4  C1  UNK   900      10.968 -29.605 -74.634  1.00  0.00     0.119 C 
HETATM    5  C2  UNK   900      10.486 -28.529 -77.292  1.00  0.00     0.242 C 
HETATM    6  C3  UNK   900       9.342 -29.120 -76.460  1.00  0.00     0.162 C 
HETATM    7  C4  UNK   900      12.059 -29.006 -75.533  1.00  0.00     0.295 C 
HETATM    8  C7  UNK   900       8.614 -28.770 -74.128  1.00  0.00     0.216 C 
HETATM    9  C12 UNK   900       8.977 -28.749 -72.663  1.00  0.00     0.117 C 
HETATM   10  H7  UNK   900      12.509 -28.766 -77.508  1.00  0.00     0.316 HD
ENDROOT
BRANCH   5  11
HETATM   11  C5  UNK   900      10.213 -28.702 -78.783  1.00  0.00     0.076 C 
BRANCH  11  12
HETATM   12  C8  UNK   900      10.515 -27.445 -79.553  1.00  0.00    -0.051 A 
HETATM   13  C10 UNK   900      11.153 -27.528 -80.792  1.00  0.00     0.047 A 
HETATM   14  C15 UNK   900      11.409 -26.347 -81.460  1.00  0.00     0.108 A 
HETATM   15  O2  UNK   900      12.019 -26.231 -82.671  1.00  0.00    -0.323 OA
HETATM   16  C17 UNK   900      11.052 -25.126 -80.935  1.00  0.00     0.138 A 
HETATM   17  C21 UNK   900      12.007 -24.800 -82.850  1.00  0.00     0.352 A 
HETATM   18  O3  UNK   900      11.395 -24.092 -81.751  1.00  0.00    -0.320 OA
HETATM   19  C16 UNK   900      10.421 -25.018 -79.713  1.00  0.00     0.104 A 
HETATM   20  C11 UNK   900      10.150 -26.198 -79.015  1.00  0.00     0.047 A 
BRANCH  19  21
HETATM   21  O4  UNK   900      10.073 -23.812 -79.198  1.00  0.00    -0.353 OA
HETATM   22  C22 UNK   900       8.828 -23.254 -79.626  1.00  0.00     0.210 C 
ENDBRANCH  19  21
ENDBRANCH  11  12
ENDBRANCH   5  11
BRANCH   4  23
HETATM   23  C6  UNK   900      10.987 -31.138 -74.647  1.00  0.00     0.065 C 
BRANCH  23  24
HETATM   24  C9  UNK   900      10.969 -31.699 -73.253  1.00  0.00    -0.056 A 
HETATM   25  C13 UNK   900      12.037 -31.458 -72.390  1.00  0.00     0.007 A 
HETATM   26  C18 UNK   900      12.020 -31.980 -71.096  1.00  0.00     0.001 A 
HETATM   27  C20 UNK   900      10.934 -32.742 -70.666  1.00  0.00     0.000 A 
HETATM   28  C19 UNK   900       9.866 -32.983 -71.530  1.00  0.00     0.001 A 
HETATM   29  C14 UNK   900       9.883 -32.461 -72.824  1.00  0.00     0.007 A 
ENDBRANCH  23  24
ENDBRANCH   4  23
TORSDOF 5
ENDMDL
MODEL 7
REMARK VINA RESULT:      -6.2     33.598     35.579
REMARK  5 active torsions:
REMARK  status: ('A' for Active; 'I' for Inactive)
REMARK    1  A    between atoms: O4_4  and  C16_22 
REMARK       I    between atoms: N1_5  and  C7_13 
REMARK    2  A    between atoms: C1_7  and  C6_12 
REMARK    3  A    between atoms: C2_8  and  C5_11 
REMARK    4  A    between atoms: C5_11  and  C8_14 
REMARK    5  A    between atoms: C6_12  and  C9_15 
ROOT
HETATM    1  O1  UNK   900      39.680 -36.635 -57.439  1.00  0.00    -0.274 OA
HETATM    2  N1  UNK   900      37.394 -37.049 -57.314  1.00  0.00    -0.344 N 
HETATM    3  N2  UNK   900      35.229 -38.922 -57.104  1.00  0.00     0.092 N 
HETATM    4  C1  UNK   900      36.006 -36.559 -57.170  1.00  0.00     0.119 C 
HETATM    5  C2  UNK   900      36.617 -39.401 -57.085  1.00  0.00     0.242 C 
HETATM    6  C3  UNK   900      37.536 -38.418 -57.819  1.00  0.00     0.162 C 
HETATM    7  C4  UNK   900      35.134 -37.609 -56.466  1.00  0.00     0.295 C 
HETATM    8  C7  UNK   900      38.537 -36.257 -57.168  1.00  0.00     0.216 C 
HETATM    9  C12 UNK   900      38.331 -34.862 -56.632  1.00  0.00     0.117 C 
HETATM   10  H7  UNK   900      34.635 -39.582 -56.601  1.00  0.00     0.316 HD
ENDROOT
BRANCH   5  11
HETATM   11  C5  UNK   900      36.681 -40.782 -57.731  1.00  0.00     0.076 C 
BRANCH  11  12
HETATM   12  C8  UNK   900      38.001 -41.455 -57.471  1.00  0.00    -0.051 A 
HETATM   13  C10 UNK   900      38.427 -41.664 -56.157  1.00  0.00     0.047 A 
HETATM   14  C15 UNK   900      39.645 -42.284 -55.969  1.00  0.00     0.108 A 
HETATM   15  O2  UNK   900      40.219 -42.569 -54.769  1.00  0.00    -0.323 OA
HETATM   16  C17 UNK   900      40.423 -42.689 -57.030  1.00  0.00     0.138 A 
HETATM   17  C21 UNK   900      41.446 -43.199 -55.192  1.00  0.00     0.352 A 
HETATM   18  O3  UNK   900      41.581 -43.278 -56.627  1.00  0.00    -0.320 OA
HETATM   19  C16 UNK   900      40.025 -42.495 -58.337  1.00  0.00     0.104 A 
HETATM   20  C11 UNK   900      38.795 -41.868 -58.555  1.00  0.00     0.047 A 
BRANCH  19  21
HETATM   21  O4  UNK   900      40.795 -42.895 -59.380  1.00  0.00    -0.353 OA
HETATM   22  C22 UNK   900      40.129 -43.181 -60.612  1.00  0.00     0.210 C 
ENDBRANCH  19  21
ENDBRANCH  11  12
ENDBRANCH   5  11
BRANCH   4  23
HETATM   23  C6  UNK   900      35.433 -36.152 -58.532  1.00  0.00     0.065 C 
BRANCH  23  24
HETATM   24  C9  UNK   900      35.353 -34.658 -58.669  1.00  0.00    -0.056 A 
HETATM   25  C13 UNK   900      36.254 -33.984 -59.494  1.00  0.00     0.007 A 
HETATM   26  C18 UNK   900      36.179 -32.596 -59.621  1.00  0.00     0.001 A 
HETATM   27  C20 UNK   900      35.204 -31.884 -58.922  1.00  0.00     0.000 A 
HETATM   28  C19 UNK   900      34.305 -32.558 -58.098  1.00  0.00     0.001 A 
HETATM   29  C14 UNK   900      34.379 -33.946 -57.971  1.00  0.00     0.007 A 
ENDBRANCH  23  24
ENDBRANCH   4  23
TORSDOF 5
ENDMDL
MODEL 8
REMARK VINA RESULT:      -6.1     19.820     23.152
REMARK  5 active torsions:
REMARK  status: ('A' for Active; 'I' for Inactive)
REMARK    1  A    between atoms: O4_4  and  C16_22 
REMARK       I    between atoms: N1_5  and  C7_13 
REMARK    2  A    between atoms: C1_7  and  C6_12 
REMARK    3  A    between atoms: C2_8  and  C5_11 
REMARK    4  A    between atoms: C5_11  and  C8_14 
REMARK    5  A    between atoms: C6_12  and  C9_15 
ROOT
HETATM    1  O1  UNK   900       3.310 -46.510 -66.837  1.00  0.00    -0.274 OA
HETATM    2  N1  UNK   900       3.945 -44.505 -65.844  1.00  0.00    -0.344 N 
HETATM    3  N2  UNK   900       5.191 -41.927 -66.057  1.00  0.00     0.092 N 
HETATM    4  C1  UNK   900       3.912 -43.573 -64.696  1.00  0.00     0.119 C 
HETATM    5  C2  UNK   900       5.080 -42.788 -67.241  1.00  0.00     0.242 C 
HETATM    6  C3  UNK   900       5.003 -44.262 -66.830  1.00  0.00     0.162 C 
HETATM    7  C4  UNK   900       4.037 -42.120 -65.178  1.00  0.00     0.295 C 
HETATM    8  C7  UNK   900       3.168 -45.661 -65.952  1.00  0.00     0.216 C 
HETATM    9  C12 UNK   900       2.086 -45.851 -64.918  1.00  0.00     0.117 C 
HETATM   10  H7  UNK   900       5.228 -40.950 -66.349  1.00  0.00     0.316 HD
ENDROOT
BRANCH   5  11
HETATM   11  C5  UNK   900       6.280 -42.546 -68.152  1.00  0.00     0.076 C 
BRANCH  11  12
HETATM   12  C8  UNK   900       5.943 -42.805 -69.595  1.00  0.00    -0.051 A 
HETATM   13  C10 UNK   900       5.213 -41.858 -70.318  1.00  0.00     0.047 A 
HETATM   14  C15 UNK   900       4.928 -42.141 -71.638  1.00  0.00     0.108 A 
HETATM   15  O2  UNK   900       4.232 -41.343 -72.492  1.00  0.00    -0.323 OA
HETATM   16  C17 UNK   900       5.343 -43.310 -72.234  1.00  0.00     0.138 A 
HETATM   17  C21 UNK   900       4.254 -42.141 -73.694  1.00  0.00     0.352 A 
HETATM   18  O3  UNK   900       4.957 -43.391 -73.537  1.00  0.00    -0.320 OA
HETATM   19  C16 UNK   900       6.064 -44.261 -71.543  1.00  0.00     0.104 A 
HETATM   20  C11 UNK   900       6.367 -43.999 -70.204  1.00  0.00     0.047 A 
BRANCH  19  21
HETATM   21  O4  UNK   900       6.470 -45.412 -72.134  1.00  0.00    -0.353 OA
HETATM   22  C22 UNK   900       6.425 -46.603 -71.345  1.00  0.00     0.210 C 
ENDBRANCH  19  21
ENDBRANCH  11  12
ENDBRANCH   5  11
BRANCH   4  23
HETATM   23  C6  UNK   900       4.995 -43.936 -63.674  1.00  0.00     0.065 C 
BRANCH  23  24
HETATM   24  C9  UNK   900       4.393 -44.459 -62.401  1.00  0.00    -0.056 A 
HETATM   25  C13 UNK   900       4.859 -45.651 -61.847  1.00  0.00     0.007 A 
HETATM   26  C18 UNK   900       4.300 -46.136 -60.664  1.00  0.00     0.001 A 
HETATM   27  C20 UNK   900       3.274 -45.429 -60.036  1.00  0.00     0.000 A 
HETATM   28  C19 UNK   900       2.808 -44.238 -60.591  1.00  0.00     0.001 A 
HETATM   29  C14 UNK   900       3.368 -43.752 -61.774  1.00  0.00     0.007 A 
ENDBRANCH  23  24
ENDBRANCH   4  23
TORSDOF 5
ENDMDL
MODEL 9
REMARK VINA RESULT:      -6.0      4.898     11.732
REMARK  5 active torsions:
REMARK  status: ('A' for Active; 'I' for Inactive)
REMARK    1  A    between atoms: O4_4  and  C16_22 
REMARK       I    between atoms: N1_5  and  C7_13 
REMARK    2  A    between atoms: C1_7  and  C6_12 
REMARK    3  A    between atoms: C2_8  and  C5_11 
REMARK    4  A    between atoms: C5_11  and  C8_14 
REMARK    5  A    between atoms: C6_12  and  C9_15 
ROOT
HETATM    1  O1  UNK   900      22.183 -68.973 -69.109  1.00  0.00    -0.274 OA
HETATM    2  N1  UNK   900      22.633 -67.866 -67.113  1.00  0.00    -0.344 N 
HETATM    3  N2  UNK   900      21.890 -65.903 -65.154  1.00  0.00     0.092 N 
HETATM    4  C1  UNK   900      23.426 -67.724 -65.874  1.00  0.00     0.119 C 
HETATM    5  C2  UNK   900      21.015 -66.157 -66.305  1.00  0.00     0.242 C 
HETATM    6  C3  UNK   900      21.825 -66.701 -67.488  1.00  0.00     0.162 C 
HETATM    7  C4  UNK   900      22.565 -67.136 -64.746  1.00  0.00     0.295 C 
HETATM    8  C7  UNK   900      22.735 -68.937 -68.006  1.00  0.00     0.216 C 
HETATM    9  C12 UNK   900      23.568 -70.113 -67.561  1.00  0.00     0.117 C 
HETATM   10  H7  UNK   900      21.333 -65.554 -64.374  1.00  0.00     0.316 HD
ENDROOT
BRANCH   5  11
HETATM   11  C5  UNK   900      20.303 -64.863 -66.691  1.00  0.00     0.076 C 
BRANCH  11  12
HETATM   12  C8  UNK   900      18.812 -64.981 -66.531  1.00  0.00    -0.051 A 
HETATM   13  C10 UNK   900      17.965 -64.293 -67.402  1.00  0.00     0.047 A 
HETATM   14  C15 UNK   900      16.605 -64.432 -67.215  1.00  0.00     0.108 A 
HETATM   15  O2  UNK   900      15.632 -63.841 -67.961  1.00  0.00    -0.323 OA
HETATM   16  C17 UNK   900      16.088 -65.218 -66.210  1.00  0.00     0.138 A 
HETATM   17  C21 UNK   900      14.445 -64.342 -67.313  1.00  0.00     0.352 A 
HETATM   18  O3  UNK   900      14.728 -65.217 -66.200  1.00  0.00    -0.320 OA
HETATM   19  C16 UNK   900      16.903 -65.907 -65.337  1.00  0.00     0.104 A 
HETATM   20  C11 UNK   900      18.285 -65.784 -65.504  1.00  0.00     0.047 A 
BRANCH  19  21
HETATM   21  O4  UNK   900      16.390 -66.679 -64.347  1.00  0.00    -0.353 OA
HETATM   22  C22 UNK   900      16.463 -68.097 -64.519  1.00  0.00     0.210 C 
ENDBRANCH  19  21
ENDBRANCH  11  12
ENDBRANCH   5  11
BRANCH   4  23
HETATM   23  C6  UNK   900      24.687 -66.892 -66.132  1.00  0.00     0.065 C 
BRANCH  23  24
HETATM   24  C9  UNK   900      25.840 -67.368 -65.296  1.00  0.00    -0.056 A 
HETATM   25  C13 UNK   900      25.901 -68.699 -64.885  1.00  0.00     0.007 A 
HETATM   26  C18 UNK   900      26.973 -69.141 -64.108  1.00  0.00     0.001 A 
HETATM   27  C20 UNK   900      27.983 -68.251 -63.743  1.00  0.00     0.000 A 
HETATM   28  C19 UNK   900      27.922 -66.920 -64.154  1.00  0.00     0.001 A 
HETATM   29  C14 UNK   900      26.850 -66.478 -64.931  1.00  0.00     0.007 A 
ENDBRANCH  23  24
ENDBRANCH   4  23
TORSDOF 5
ENDMDL
