MODEL 1
REMARK VINA RESULT:      -4.8      0.000      0.000
REMARK  5 active torsions:
REMARK  status: ('A' for Active; 'I' for Inactive)
REMARK    1  A    between atoms: O2_2  and  C6_12 
REMARK    2  A    between atoms: N1_6  and  C5_11 
REMARK    3  A    between atoms: C1_7  and  C6_12 
REMARK    4  A    between atoms: C5_11  and  C7_13 
REMARK    5  A    between atoms: C7_13  and  C8_14 
ROOT
HETATM    1  O1  UNK   900       0.767 -45.812 -58.566  1.00  0.00    -0.273 OA
HETATM    2  N1  UNK   900       1.714 -47.873 -59.197  1.00  0.00    -0.330 N 
HETATM    3  C1  UNK   900       3.031 -48.379 -59.512  1.00  0.00     0.185 C 
HETATM    4  C2  UNK   900       3.817 -47.125 -59.850  1.00  0.00     0.045 C 
HETATM    5  C3  UNK   900       3.135 -46.023 -59.040  1.00  0.00     0.105 C 
HETATM    6  C4  UNK   900       1.711 -46.511 -58.905  1.00  0.00     0.221 C 
ENDROOT
BRANCH   2   7
HETATM    7  C5  UNK   900       0.550 -48.736 -59.159  1.00  0.00     0.212 C 
BRANCH   7   8
HETATM    8  C7  UNK   900       0.202 -49.164 -60.572  1.00  0.00     0.200 C 
HETATM    9  O5  UNK   900       0.160 -48.369 -61.508  1.00  0.00    -0.288 OA
BRANCH   8  10
HETATM   10  C8  UNK   900      -0.141 -50.592 -60.815  1.00  0.00     0.122 A 
HETATM   11  O4  UNK   900      -0.287 -51.404 -59.735  1.00  0.00    -0.319 OA
HETATM   12  C11 UNK   900      -0.595 -52.637 -60.215  1.00  0.00     0.142 A 
HETATM   13  C10 UNK   900      -0.649 -52.622 -61.590  1.00  0.00     0.027 A 
HETATM   14  C9  UNK   900      -0.353 -51.293 -61.979  1.00  0.00     0.043 A 
ENDBRANCH   8  10
ENDBRANCH   7   8
ENDBRANCH   2   7
BRANCH   3  15
HETATM   15  C6  UNK   900       3.571 -49.067 -58.295  1.00  0.00     0.163 C 
HETATM   16  O3  UNK   900       2.997 -49.951 -57.676  1.00  0.00    -0.648 OA
BRANCH  15  17
HETATM   17  O2  UNK   900       4.790 -48.573 -57.968  1.00  0.00    -0.775 OA
HETATM   18  H8  UNK   900       4.887 -48.450 -57.000  1.00  0.00     0.167 HD
ENDBRANCH  15  17
ENDBRANCH   3  15
TORSDOF 5
ENDMDL
MODEL 2
REMARK VINA RESULT:      -4.7     36.490     37.902
REMARK  5 active torsions:
REMARK  status: ('A' for Active; 'I' for Inactive)
REMARK    1  A    between atoms: O2_2  and  C6_12 
REMARK    2  A    between atoms: N1_6  and  C5_11 
REMARK    3  A    between atoms: C1_7  and  C6_12 
REMARK    4  A    between atoms: C5_11  and  C7_13 
REMARK    5  A    between atoms: C7_13  and  C8_14 
ROOT
HETATM    1  O1  UNK   900       7.516 -44.706 -97.467  1.00  0.00    -0.273 OA
HETATM    2  N1  UNK   900       9.197 -44.138 -95.920  1.00  0.00    -0.330 N 
HETATM    3  C1  UNK   900       9.840 -42.930 -95.453  1.00  0.00     0.185 C 
HETATM    4  C2  UNK   900       9.550 -41.930 -96.558  1.00  0.00     0.045 C 
HETATM    5  C3  UNK   900       8.232 -42.411 -97.165  1.00  0.00     0.105 C 
HETATM    6  C4  UNK   900       8.246 -43.899 -96.909  1.00  0.00     0.221 C 
ENDROOT
BRANCH   2   7
HETATM    7  C5  UNK   900       9.510 -45.438 -95.360  1.00  0.00     0.212 C 
BRANCH   7   8
HETATM    8  C7  UNK   900      11.015 -45.587 -95.256  1.00  0.00     0.200 C 
HETATM    9  O5  UNK   900      11.630 -45.342 -94.221  1.00  0.00    -0.288 OA
BRANCH   8  10
HETATM   10  C8  UNK   900      11.771 -46.002 -96.469  1.00  0.00     0.122 A 
HETATM   11  O4  UNK   900      12.226 -45.028 -97.300  1.00  0.00    -0.319 OA
HETATM   12  C11 UNK   900      12.874 -45.654 -98.317  1.00  0.00     0.142 A 
HETATM   13  C10 UNK   900      12.838 -47.019 -98.144  1.00  0.00     0.027 A 
HETATM   14  C9  UNK   900      12.121 -47.245 -96.945  1.00  0.00     0.043 A 
ENDBRANCH   8  10
ENDBRANCH   7   8
ENDBRANCH   2   7
BRANCH   3  15
HETATM   15  C6  UNK   900       9.204 -42.533 -94.157  1.00  0.00     0.163 C 
HETATM   16  O3  UNK   900       8.221 -41.815 -94.048  1.00  0.00    -0.648 OA
BRANCH  15  17
HETATM   17  O2  UNK   900       9.870 -43.079 -93.110  1.00  0.00    -0.775 OA
HETATM   18  H8  UNK   900       9.667 -44.033 -93.005  1.00  0.00     0.167 HD
ENDBRANCH  15  17
ENDBRANCH   3  15
TORSDOF 5
ENDMDL
MODEL 3
REMARK VINA RESULT:      -4.5     39.161     40.444
REMARK  5 active torsions:
REMARK  status: ('A' for Active; 'I' for Inactive)
REMARK    1  A    between atoms: O2_2  and  C6_12 
REMARK    2  A    between atoms: N1_6  and  C5_11 
REMARK    3  A    between atoms: C1_7  and  C6_12 
REMARK    4  A    between atoms: C5_11  and  C7_13 
REMARK    5  A    between atoms: C7_13  and  C8_14 
ROOT
HETATM    1  O1  UNK   900      39.928 -64.398 -50.670  1.00  0.00    -0.273 OA
HETATM    2  N1  UNK   900      39.295 -62.153 -50.994  1.00  0.00    -0.330 N 
HETATM    3  C1  UNK   900      39.945 -60.914 -51.356  1.00  0.00     0.185 C 
HETATM    4  C2  UNK   900      41.408 -61.183 -51.052  1.00  0.00     0.045 C 
HETATM    5  C3  UNK   900      41.558 -62.693 -51.230  1.00  0.00     0.105 C 
HETATM    6  C4  UNK   900      40.180 -63.226 -50.913  1.00  0.00     0.221 C 
ENDROOT
BRANCH   2   7
HETATM    7  C5  UNK   900      37.863 -62.237 -50.786  1.00  0.00     0.212 C 
BRANCH   7   8
HETATM    8  C7  UNK   900      37.275 -63.235 -51.764  1.00  0.00     0.200 C 
HETATM    9  O5  UNK   900      37.431 -63.135 -52.979  1.00  0.00    -0.288 OA
BRANCH   8  10
HETATM   10  C8  UNK   900      36.444 -64.347 -51.228  1.00  0.00     0.122 A 
HETATM   11  O4  UNK   900      36.192 -65.403 -52.045  1.00  0.00    -0.319 OA
HETATM   12  C11 UNK   900      35.426 -66.271 -51.333  1.00  0.00     0.142 A 
HETATM   13  C10 UNK   900      35.186 -65.780 -50.070  1.00  0.00     0.027 A 
HETATM   14  C9  UNK   900      35.847 -64.530 -50.002  1.00  0.00     0.043 A 
ENDBRANCH   8  10
ENDBRANCH   7   8
ENDBRANCH   2   7
BRANCH   3  15
HETATM   15  C6  UNK   900      39.711 -60.673 -52.816  1.00  0.00     0.163 C 
HETATM   16  O3  UNK   900      40.549 -60.817 -53.694  1.00  0.00    -0.648 OA
BRANCH  15  17
HETATM   17  O2  UNK   900      38.437 -60.268 -53.036  1.00  0.00    -0.775 OA
HETATM   18  H8  UNK   900      37.785 -60.956 -52.783  1.00  0.00     0.167 HD
ENDBRANCH  15  17
ENDBRANCH   3  15
TORSDOF 5
ENDMDL
MODEL 4
REMARK VINA RESULT:      -4.4     36.185     37.733
REMARK  5 active torsions:
REMARK  status: ('A' for Active; 'I' for Inactive)
REMARK    1  A    between atoms: O2_2  and  C6_12 
REMARK    2  A    between atoms: N1_6  and  C5_11 
REMARK    3  A    between atoms: C1_7  and  C6_12 
REMARK    4  A    between atoms: C5_11  and  C7_13 
REMARK    5  A    between atoms: C7_13  and  C8_14 
ROOT
HETATM    1  O1  UNK   900       9.363 -47.437 -99.320  1.00  0.00    -0.273 OA
HETATM    2  N1  UNK   900       9.873 -46.637 -97.165  1.00  0.00    -0.330 N 
HETATM    3  C1  UNK   900      10.722 -47.033 -96.064  1.00  0.00     0.185 C 
HETATM    4  C2  UNK   900      10.988 -48.502 -96.337  1.00  0.00     0.045 C 
HETATM    5  C3  UNK   900      10.884 -48.628 -97.857  1.00  0.00     0.105 C 
HETATM    6  C4  UNK   900       9.930 -47.521 -98.240  1.00  0.00     0.221 C 
ENDROOT
BRANCH   2   7
HETATM    7  C5  UNK   900       9.089 -45.418 -97.130  1.00  0.00     0.212 C 
BRANCH   7   8
HETATM    8  C7  UNK   900       8.199 -45.434 -95.902  1.00  0.00     0.200 C 
HETATM    9  O5  UNK   900       7.307 -46.264 -95.748  1.00  0.00    -0.288 OA
BRANCH   8  10
HETATM   10  C8  UNK   900       8.392 -44.376 -94.874  1.00  0.00     0.122 A 
HETATM   11  O4  UNK   900       9.587 -43.729 -94.842  1.00  0.00    -0.319 OA
HETATM   12  C11 UNK   900       9.513 -42.824 -93.832  1.00  0.00     0.142 A 
HETATM   13  C10 UNK   900       8.283 -42.885 -93.217  1.00  0.00     0.027 A 
HETATM   14  C9  UNK   900       7.556 -43.893 -93.894  1.00  0.00     0.043 A 
ENDBRANCH   8  10
ENDBRANCH   7   8
ENDBRANCH   2   7
BRANCH   3  15
HETATM   15  C6  UNK   900      11.976 -46.216 -96.125  1.00  0.00     0.163 C 
HETATM   16  O3  UNK   900      12.849 -46.333 -96.972  1.00  0.00    -0.648 OA
BRANCH  15  17
HETATM   17  O2  UNK   900      12.016 -45.324 -95.106  1.00  0.00    -0.775 OA
HETATM   18  H8  UNK   900      11.266 -45.444 -94.485  1.00  0.00     0.167 HD
ENDBRANCH  15  17
ENDBRANCH   3  15
TORSDOF 5
ENDMDL
MODEL 5
REMARK VINA RESULT:      -4.3      9.566     11.753
REMARK  5 active torsions:
REMARK  status: ('A' for Active; 'I' for Inactive)
REMARK    1  A    between atoms: O2_2  and  C6_12 
REMARK    2  A    between atoms: N1_6  and  C5_11 
REMARK    3  A    between atoms: C1_7  and  C6_12 
REMARK    4  A    between atoms: C5_11  and  C7_13 
REMARK    5  A    between atoms: C7_13  and  C8_14 
ROOT
HETATM    1  O1  UNK   900       7.139 -39.603 -65.727  1.00  0.00    -0.273 OA
HETATM    2  N1  UNK   900       7.558 -39.044 -63.479  1.00  0.00    -0.330 N 
HETATM    3  C1  UNK   900       8.518 -38.247 -62.749  1.00  0.00     0.185 C 
HETATM    4  C2  UNK   900       9.677 -38.117 -63.721  1.00  0.00     0.045 C 
HETATM    5  C3  UNK   900       9.025 -38.215 -65.100  1.00  0.00     0.105 C 
HETATM    6  C4  UNK   900       7.795 -39.057 -64.852  1.00  0.00     0.221 C 
ENDROOT
BRANCH   2   7
HETATM    7  C5  UNK   900       6.454 -39.711 -62.817  1.00  0.00     0.212 C 
BRANCH   7   8
HETATM    8  C7  UNK   900       6.851 -41.141 -62.505  1.00  0.00     0.200 C 
HETATM    9  O5  UNK   900       7.759 -41.415 -61.726  1.00  0.00    -0.288 OA
BRANCH   8  10
HETATM   10  C8  UNK   900       6.137 -42.243 -63.207  1.00  0.00     0.122 A 
HETATM   11  O4  UNK   900       6.203 -42.282 -64.563  1.00  0.00    -0.319 OA
HETATM   12  C11 UNK   900       5.483 -43.365 -64.957  1.00  0.00     0.142 A 
HETATM   13  C10 UNK   900       4.958 -44.018 -63.867  1.00  0.00     0.027 A 
HETATM   14  C9  UNK   900       5.382 -43.289 -62.730  1.00  0.00     0.043 A 
ENDBRANCH   8  10
ENDBRANCH   7   8
ENDBRANCH   2   7
BRANCH   3  15
HETATM   15  C6  UNK   900       7.891 -36.922 -62.445  1.00  0.00     0.163 C 
HETATM   16  O3  UNK   900       6.691 -36.726 -62.320  1.00  0.00    -0.648 OA
BRANCH  15  17
HETATM   17  O2  UNK   900       8.838 -35.960 -62.326  1.00  0.00    -0.775 OA
HETATM   18  H8  UNK   900       9.115 -35.832 -61.394  1.00  0.00     0.167 HD
ENDBRANCH  15  17
ENDBRANCH   3  15
TORSDOF 5
ENDMDL
MODEL 6
REMARK VINA RESULT:      -4.2     13.209     15.261
REMARK  5 active torsions:
REMARK  status: ('A' for Active; 'I' for Inactive)
REMARK    1  A    between atoms: O2_2  and  C6_12 
REMARK    2  A    between atoms: N1_6  and  C5_11 
REMARK    3  A    between atoms: C1_7  and  C6_12 
REMARK    4  A    between atoms: C5_11  and  C7_13 
REMARK    5  A    between atoms: C7_13  and  C8_14 
ROOT
HETATM    1  O1  UNK   900       3.920 -64.762 -64.153  1.00  0.00    -0.273 OA
HETATM    2  N1  UNK   900       4.200 -64.002 -61.942  1.00  0.00    -0.330 N 
HETATM    3  C1  UNK   900       4.541 -64.579 -60.661  1.00  0.00     0.185 C 
HETATM    4  C2  UNK   900       4.246 -66.056 -60.853  1.00  0.00     0.045 C 
HETATM    5  C3  UNK   900       4.452 -66.290 -62.349  1.00  0.00     0.105 C 
HETATM    6  C4  UNK   900       4.141 -64.946 -62.965  1.00  0.00     0.221 C 
ENDROOT
BRANCH   2   7
HETATM    7  C5  UNK   900       3.989 -62.577 -62.110  1.00  0.00     0.212 C 
BRANCH   7   8
HETATM    8  C7  UNK   900       3.018 -62.091 -61.053  1.00  0.00     0.200 C 
HETATM    9  O5  UNK   900       3.392 -61.550 -60.015  1.00  0.00    -0.288 OA
BRANCH   8  10
HETATM   10  C8  UNK   900       1.563 -62.320 -61.268  1.00  0.00     0.122 A 
HETATM   11  O4  UNK   900       0.690 -61.454 -60.690  1.00  0.00    -0.319 OA
HETATM   12  C11 UNK   900      -0.557 -61.872 -61.033  1.00  0.00     0.142 A 
HETATM   13  C10 UNK   900      -0.490 -62.995 -61.824  1.00  0.00     0.027 A 
HETATM   14  C9  UNK   900       0.887 -63.287 -61.976  1.00  0.00     0.043 A 
ENDBRANCH   8  10
ENDBRANCH   7   8
ENDBRANCH   2   7
BRANCH   3  15
HETATM   15  C6  UNK   900       5.995 -64.327 -60.407  1.00  0.00     0.163 C 
HETATM   16  O3  UNK   900       6.633 -64.780 -59.468  1.00  0.00    -0.648 OA
BRANCH  15  17
HETATM   17  O2  UNK   900       6.515 -63.520 -61.363  1.00  0.00    -0.775 OA
HETATM   18  H8  UNK   900       5.914 -62.776 -61.581  1.00  0.00     0.167 HD
ENDBRANCH  15  17
ENDBRANCH   3  15
TORSDOF 5
ENDMDL
MODEL 7
REMARK VINA RESULT:      -4.1     35.759     37.212
REMARK  5 active torsions:
REMARK  status: ('A' for Active; 'I' for Inactive)
REMARK    1  A    between atoms: O2_2  and  C6_12 
REMARK    2  A    between atoms: N1_6  and  C5_11 
REMARK    3  A    between atoms: C1_7  and  C6_12 
REMARK    4  A    between atoms: C5_11  and  C7_13 
REMARK    5  A    between atoms: C7_13  and  C8_14 
ROOT
HETATM    1  O1  UNK   900       6.970 -46.081 -96.219  1.00  0.00    -0.273 OA
HETATM    2  N1  UNK   900       8.519 -44.507 -95.402  1.00  0.00    -0.330 N 
HETATM    3  C1  UNK   900       8.545 -43.084 -95.146  1.00  0.00     0.185 C 
HETATM    4  C2  UNK   900       7.402 -42.554 -95.994  1.00  0.00     0.045 C 
HETATM    5  C3  UNK   900       6.422 -43.724 -96.078  1.00  0.00     0.105 C 
HETATM    6  C4  UNK   900       7.308 -44.940 -95.937  1.00  0.00     0.221 C 
ENDROOT
BRANCH   2   7
HETATM    7  C5  UNK   900       9.643 -45.365 -95.083  1.00  0.00     0.212 C 
BRANCH   7   8
HETATM    8  C7  UNK   900      10.436 -45.636 -96.347  1.00  0.00     0.200 C 
HETATM    9  O5  UNK   900      10.521 -44.817 -97.258  1.00  0.00    -0.288 OA
BRANCH   8  10
HETATM   10  C8  UNK   900      11.096 -46.962 -96.498  1.00  0.00     0.122 A 
HETATM   11  O4  UNK   900      10.447 -48.054 -96.017  1.00  0.00    -0.319 OA
HETATM   12  C11 UNK   900      11.243 -49.124 -96.274  1.00  0.00     0.142 A 
HETATM   13  C10 UNK   900      12.394 -48.728 -96.915  1.00  0.00     0.027 A 
HETATM   14  C9  UNK   900      12.299 -47.322 -97.059  1.00  0.00     0.043 A 
ENDBRANCH   8  10
ENDBRANCH   7   8
ENDBRANCH   2   7
BRANCH   3  15
HETATM   15  C6  UNK   900       8.304 -42.868 -93.684  1.00  0.00     0.163 C 
HETATM   16  O3  UNK   900       7.342 -43.293 -93.060  1.00  0.00    -0.648 OA
BRANCH  15  17
HETATM   17  O2  UNK   900       9.303 -42.132 -93.138  1.00  0.00    -0.775 OA
HETATM   18  H8  UNK   900       9.271 -42.141 -92.158  1.00  0.00     0.167 HD
ENDBRANCH  15  17
ENDBRANCH   3  15
TORSDOF 5
ENDMDL
MODEL 8
REMARK VINA RESULT:      -4.1     41.699     43.282
REMARK  5 active torsions:
REMARK  status: ('A' for Active; 'I' for Inactive)
REMARK    1  A    between atoms: O2_2  and  C6_12 
REMARK    2  A    between atoms: N1_6  and  C5_11 
REMARK    3  A    between atoms: C1_7  and  C6_12 
REMARK    4  A    between atoms: C5_11  and  C7_13 
REMARK    5  A    between atoms: C7_13  and  C8_14 
ROOT
HETATM    1  O1  UNK   900      44.580 -55.734 -46.960  1.00  0.00    -0.273 OA
HETATM    2  N1  UNK   900      42.611 -54.607 -46.329  1.00  0.00    -0.330 N 
HETATM    3  C1  UNK   900      41.215 -54.626 -46.706  1.00  0.00     0.185 C 
HETATM    4  C2  UNK   900      41.232 -55.275 -48.079  1.00  0.00     0.045 C 
HETATM    5  C3  UNK   900      42.463 -56.179 -48.053  1.00  0.00     0.105 C 
HETATM    6  C4  UNK   900      43.386 -55.496 -47.072  1.00  0.00     0.221 C 
ENDROOT
BRANCH   2   7
HETATM    7  C5  UNK   900      43.104 -53.766 -45.257  1.00  0.00     0.212 C 
BRANCH   7   8
HETATM    8  C7  UNK   900      43.345 -52.368 -45.792  1.00  0.00     0.200 C 
HETATM    9  O5  UNK   900      44.434 -52.011 -46.233  1.00  0.00    -0.288 OA
BRANCH   8  10
HETATM   10  C8  UNK   900      42.227 -51.386 -45.736  1.00  0.00     0.122 A 
HETATM   11  O4  UNK   900      42.109 -50.498 -46.756  1.00  0.00    -0.319 OA
HETATM   12  C11 UNK   900      41.028 -49.723 -46.475  1.00  0.00     0.142 A 
HETATM   13  C10 UNK   900      40.454 -50.108 -45.286  1.00  0.00     0.027 A 
HETATM   14  C9  UNK   900      41.234 -51.188 -44.805  1.00  0.00     0.043 A 
ENDBRANCH   8  10
ENDBRANCH   7   8
ENDBRANCH   2   7
BRANCH   3  15
HETATM   15  C6  UNK   900      40.472 -55.455 -45.704  1.00  0.00     0.163 C 
HETATM   16  O3  UNK   900      40.679 -56.638 -45.480  1.00  0.00    -0.648 OA
BRANCH  15  17
HETATM   17  O2  UNK   900      39.529 -54.712 -45.075  1.00  0.00    -0.775 OA
HETATM   18  H8  UNK   900      39.238 -53.951 -45.621  1.00  0.00     0.167 HD
ENDBRANCH  15  17
ENDBRANCH   3  15
TORSDOF 5
ENDMDL
MODEL 9
REMARK VINA RESULT:      -4.1     22.434     24.613
REMARK  5 active torsions:
REMARK  status: ('A' for Active; 'I' for Inactive)
REMARK    1  A    between atoms: O2_2  and  C6_12 
REMARK    2  A    between atoms: N1_6  and  C5_11 
REMARK    3  A    between atoms: C1_7  and  C6_12 
REMARK    4  A    between atoms: C5_11  and  C7_13 
REMARK    5  A    between atoms: C7_13  and  C8_14 
ROOT
HETATM    1  O1  UNK   900      12.127 -28.049 -72.588  1.00  0.00    -0.273 OA
HETATM    2  N1  UNK   900      10.416 -29.446 -73.403  1.00  0.00    -0.330 N 
HETATM    3  C1  UNK   900      10.214 -30.316 -74.539  1.00  0.00     0.185 C 
HETATM    4  C2  UNK   900      11.246 -29.831 -75.541  1.00  0.00     0.045 C 
HETATM    5  C3  UNK   900      12.367 -29.254 -74.677  1.00  0.00     0.105 C 
HETATM    6  C4  UNK   900      11.654 -28.807 -73.422  1.00  0.00     0.221 C 
ENDROOT
BRANCH   2   7
HETATM    7  C5  UNK   900       9.426 -29.313 -72.352  1.00  0.00     0.212 C 
BRANCH   7   8
HETATM    8  C7  UNK   900      10.082 -29.584 -71.013  1.00  0.00     0.200 C 
HETATM    9  O5  UNK   900      10.263 -28.700 -70.179  1.00  0.00    -0.288 OA
BRANCH   8  10
HETATM   10  C8  UNK   900      10.559 -30.964 -70.724  1.00  0.00     0.122 A 
HETATM   11  O4  UNK   900       9.626 -31.928 -70.508  1.00  0.00    -0.319 OA
HETATM   12  C11 UNK   900      10.305 -33.081 -70.272  1.00  0.00     0.142 A 
HETATM   13  C10 UNK   900      11.662 -32.864 -70.334  1.00  0.00     0.027 A 
HETATM   14  C9  UNK   900      11.827 -31.488 -70.627  1.00  0.00     0.043 A 
ENDBRANCH   8  10
ENDBRANCH   7   8
ENDBRANCH   2   7
BRANCH   3  15
HETATM   15  C6  UNK   900      10.477 -31.725 -74.102  1.00  0.00     0.163 C 
HETATM   16  O3  UNK   900       9.621 -32.517 -73.736  1.00  0.00    -0.648 OA
BRANCH  15  17
HETATM   17  O2  UNK   900      11.801 -32.006 -74.165  1.00  0.00    -0.775 OA
HETATM   18  H8  UNK   900      12.316 -31.258 -74.535  1.00  0.00     0.167 HD
ENDBRANCH  15  17
ENDBRANCH   3  15
TORSDOF 5
ENDMDL
