MODEL 1
REMARK VINA RESULT:      -4.9      0.000      0.000
REMARK  4 active torsions:
REMARK  status: ('A' for Active; 'I' for Inactive)
REMARK    1  A    between atoms: O2_2  and  C4_7 
REMARK    2  A    between atoms: C1_4  and  C2_5 
REMARK    3  A    between atoms: C1_4  and  C3_6 
REMARK    4  A    between atoms: C2_5  and  C4_7 
ROOT
HETATM    1  O1  UNK   900      31.044 -48.216 -64.708  1.00  0.00    -0.309 OA
HETATM    2  O3  UNK   900      31.400 -50.301 -63.806  1.00  0.00    -0.260 OA
HETATM    3  C3  UNK   900      29.922 -48.738 -62.760  1.00  0.00     0.016 A 
HETATM    4  C5  UNK   900      30.244 -47.079 -64.355  1.00  0.00     0.151 A 
HETATM    5  C6  UNK   900      29.570 -47.502 -63.109  1.00  0.00     0.018 A 
HETATM    6  C7  UNK   900      30.864 -49.207 -63.784  1.00  0.00     0.289 A 
HETATM    7  C9  UNK   900      29.275 -46.777 -65.485  1.00  0.00     0.044 C 
ENDROOT
BRANCH   3   8
HETATM    8  C1  UNK   900      29.497 -49.557 -61.588  1.00  0.00     0.047 C 
BRANCH   8   9
HETATM    9  C2  UNK   900      30.155 -49.078 -60.291  1.00  0.00     0.036 C 
BRANCH   9  10
HETATM   10  C4  UNK   900      31.622 -49.510 -60.197  1.00  0.00     0.114 C 
HETATM   11  C8  UNK   900      31.755 -51.027 -60.231  1.00  0.00     0.039 C 
BRANCH  10  12
HETATM   12  O2  UNK   900      32.174 -49.027 -58.976  1.00  0.00    -0.396 OA
HETATM   13  H14 UNK   900      32.171 -48.055 -59.016  1.00  0.00     0.210 HD
ENDBRANCH  10  12
ENDBRANCH   9  10
ENDBRANCH   8   9
ENDBRANCH   3   8
TORSDOF 4
ENDMDL
MODEL 2
REMARK VINA RESULT:      -4.7      2.757      5.915
REMARK  4 active torsions:
REMARK  status: ('A' for Active; 'I' for Inactive)
REMARK    1  A    between atoms: O2_2  and  C4_7 
REMARK    2  A    between atoms: C1_4  and  C2_5 
REMARK    3  A    between atoms: C1_4  and  C3_6 
REMARK    4  A    between atoms: C2_5  and  C4_7 
ROOT
HETATM    1  O1  UNK   900      34.658 -52.644 -59.223  1.00  0.00    -0.309 OA
HETATM    2  O3  UNK   900      32.439 -52.804 -58.639  1.00  0.00    -0.260 OA
HETATM    3  C3  UNK   900      33.200 -51.117 -60.155  1.00  0.00     0.016 A 
HETATM    4  C5  UNK   900      35.424 -51.787 -60.081  1.00  0.00     0.151 A 
HETATM    5  C6  UNK   900      34.417 -50.853 -60.627  1.00  0.00     0.018 A 
HETATM    6  C7  UNK   900      33.344 -52.270 -59.256  1.00  0.00     0.289 A 
HETATM    7  C9  UNK   900      36.102 -52.626 -61.151  1.00  0.00     0.044 C 
ENDROOT
BRANCH   3   8
HETATM    8  C1  UNK   900      31.901 -50.436 -60.427  1.00  0.00     0.047 C 
BRANCH   8   9
HETATM    9  C2  UNK   900      31.561 -50.437 -61.921  1.00  0.00     0.036 C 
BRANCH   9  10
HETATM   10  C4  UNK   900      30.663 -49.257 -62.307  1.00  0.00     0.114 C 
HETATM   11  C8  UNK   900      29.251 -49.436 -61.763  1.00  0.00     0.039 C 
BRANCH  10  12
HETATM   12  O2  UNK   900      30.600 -49.163 -63.727  1.00  0.00    -0.396 OA
HETATM   13  H14 UNK   900      31.241 -49.797 -64.092  1.00  0.00     0.210 HD
ENDBRANCH  10  12
ENDBRANCH   9  10
ENDBRANCH   8   9
ENDBRANCH   3   8
TORSDOF 4
ENDMDL
MODEL 3
REMARK VINA RESULT:      -4.3      2.570      4.610
REMARK  4 active torsions:
REMARK  status: ('A' for Active; 'I' for Inactive)
REMARK    1  A    between atoms: O2_2  and  C4_7 
REMARK    2  A    between atoms: C1_4  and  C2_5 
REMARK    3  A    between atoms: C1_4  and  C3_6 
REMARK    4  A    between atoms: C2_5  and  C4_7 
ROOT
HETATM    1  O1  UNK   900      34.327 -50.520 -60.187  1.00  0.00    -0.309 OA
HETATM    2  O3  UNK   900      32.453 -51.438 -59.220  1.00  0.00    -0.260 OA
HETATM    3  C3  UNK   900      32.550 -49.110 -59.765  1.00  0.00     0.016 A 
HETATM    4  C5  UNK   900      34.702 -49.210 -60.635  1.00  0.00     0.151 A 
HETATM    5  C6  UNK   900      33.515 -48.385 -60.326  1.00  0.00     0.018 A 
HETATM    6  C7  UNK   900      33.060 -50.485 -59.677  1.00  0.00     0.289 A 
HETATM    7  C9  UNK   900      35.025 -49.259 -62.118  1.00  0.00     0.044 C 
ENDROOT
BRANCH   3   8
HETATM    8  C1  UNK   900      31.197 -48.698 -59.291  1.00  0.00     0.047 C 
BRANCH   8   9
HETATM    9  C2  UNK   900      30.244 -48.426 -60.459  1.00  0.00     0.036 C 
BRANCH   9  10
HETATM   10  C4  UNK   900      29.940 -49.696 -61.261  1.00  0.00     0.114 C 
HETATM   11  C8  UNK   900      30.338 -49.534 -62.723  1.00  0.00     0.039 C 
BRANCH  10  12
HETATM   12  O2  UNK   900      28.544 -49.969 -61.193  1.00  0.00    -0.396 OA
HETATM   13  H14 UNK   900      28.347 -50.273 -60.289  1.00  0.00     0.210 HD
ENDBRANCH  10  12
ENDBRANCH   9  10
ENDBRANCH   8   9
ENDBRANCH   3   8
TORSDOF 4
ENDMDL
MODEL 4
REMARK VINA RESULT:      -3.9      3.038      5.055
REMARK  4 active torsions:
REMARK  status: ('A' for Active; 'I' for Inactive)
REMARK    1  A    between atoms: O2_2  and  C4_7 
REMARK    2  A    between atoms: C1_4  and  C2_5 
REMARK    3  A    between atoms: C1_4  and  C3_6 
REMARK    4  A    between atoms: C2_5  and  C4_7 
ROOT
HETATM    1  O1  UNK   900      34.021 -51.024 -59.648  1.00  0.00    -0.309 OA
HETATM    2  O3  UNK   900      31.776 -51.469 -59.422  1.00  0.00    -0.260 OA
HETATM    3  C3  UNK   900      32.543 -49.588 -60.686  1.00  0.00     0.016 A 
HETATM    4  C5  UNK   900      34.797 -50.021 -60.320  1.00  0.00     0.151 A 
HETATM    5  C6  UNK   900      33.775 -49.157 -60.948  1.00  0.00     0.018 A 
HETATM    6  C7  UNK   900      32.691 -50.791 -59.857  1.00  0.00     0.289 A 
HETATM    7  C9  UNK   900      35.715 -50.689 -61.329  1.00  0.00     0.044 C 
ENDROOT
BRANCH   3   8
HETATM    8  C1  UNK   900      31.225 -49.029 -61.107  1.00  0.00     0.047 C 
BRANCH   8   9
HETATM    9  C2  UNK   900      30.805 -47.845 -60.231  1.00  0.00     0.036 C 
BRANCH   9  10
HETATM   10  C4  UNK   900      31.092 -46.500 -60.906  1.00  0.00     0.114 C 
HETATM   11  C8  UNK   900      31.878 -45.577 -59.984  1.00  0.00     0.039 C 
BRANCH  10  12
HETATM   12  O2  UNK   900      29.858 -45.872 -61.241  1.00  0.00    -0.396 OA
HETATM   13  H14 UNK   900      29.780 -45.068 -60.699  1.00  0.00     0.210 HD
ENDBRANCH  10  12
ENDBRANCH   9  10
ENDBRANCH   8   9
ENDBRANCH   3   8
TORSDOF 4
ENDMDL
MODEL 5
REMARK VINA RESULT:      -3.8      2.475      2.987
REMARK  4 active torsions:
REMARK  status: ('A' for Active; 'I' for Inactive)
REMARK    1  A    between atoms: O2_2  and  C4_7 
REMARK    2  A    between atoms: C1_4  and  C2_5 
REMARK    3  A    between atoms: C1_4  and  C3_6 
REMARK    4  A    between atoms: C2_5  and  C4_7 
ROOT
HETATM    1  O1  UNK   900      31.319 -45.346 -64.113  1.00  0.00    -0.309 OA
HETATM    2  O3  UNK   900      29.345 -46.511 -63.932  1.00  0.00    -0.260 OA
HETATM    3  C3  UNK   900      30.812 -46.266 -62.058  1.00  0.00     0.016 A 
HETATM    4  C5  UNK   900      32.388 -45.012 -63.216  1.00  0.00     0.151 A 
HETATM    5  C6  UNK   900      31.980 -45.638 -61.941  1.00  0.00     0.018 A 
HETATM    6  C7  UNK   900      30.377 -46.080 -63.449  1.00  0.00     0.289 A 
HETATM    7  C9  UNK   900      32.515 -43.501 -63.127  1.00  0.00     0.044 C 
ENDROOT
BRANCH   3   8
HETATM    8  C1  UNK   900      30.031 -47.029 -61.042  1.00  0.00     0.047 C 
BRANCH   8   9
HETATM    9  C2  UNK   900      30.192 -48.542 -61.218  1.00  0.00     0.036 C 
BRANCH   9  10
HETATM   10  C4  UNK   900      30.815 -49.202 -59.984  1.00  0.00     0.114 C 
HETATM   11  C8  UNK   900      31.151 -50.663 -60.250  1.00  0.00     0.039 C 
BRANCH  10  12
HETATM   12  O2  UNK   900      29.891 -49.133 -58.901  1.00  0.00    -0.396 OA
HETATM   13  H14 UNK   900      29.594 -50.039 -58.710  1.00  0.00     0.210 HD
ENDBRANCH  10  12
ENDBRANCH   9  10
ENDBRANCH   8   9
ENDBRANCH   3   8
TORSDOF 4
ENDMDL
MODEL 6
REMARK VINA RESULT:      -3.8     31.078     33.791
REMARK  4 active torsions:
REMARK  status: ('A' for Active; 'I' for Inactive)
REMARK    1  A    between atoms: O2_2  and  C4_7 
REMARK    2  A    between atoms: C1_4  and  C2_5 
REMARK    3  A    between atoms: C1_4  and  C3_6 
REMARK    4  A    between atoms: C2_5  and  C4_7 
ROOT
HETATM    1  O1  UNK   900      10.415 -25.332 -80.667  1.00  0.00    -0.309 OA
HETATM    2  O3  UNK   900       9.256 -26.202 -78.882  1.00  0.00    -0.260 OA
HETATM    3  C3  UNK   900      10.778 -27.549 -80.144  1.00  0.00     0.016 A 
HETATM    4  C5  UNK   900      11.378 -25.842 -81.600  1.00  0.00     0.151 A 
HETATM    5  C6  UNK   900      11.544 -27.252 -81.191  1.00  0.00     0.018 A 
HETATM    6  C7  UNK   900      10.053 -26.321 -79.796  1.00  0.00     0.289 A 
HETATM    7  C9  UNK   900      12.659 -25.033 -81.492  1.00  0.00     0.044 C 
ENDROOT
BRANCH   3   8
HETATM    8  C1  UNK   900      10.623 -28.838 -79.408  1.00  0.00     0.047 C 
BRANCH   8   9
HETATM    9  C2  UNK   900      11.570 -28.924 -78.207  1.00  0.00     0.036 C 
BRANCH   9  10
HETATM   10  C4  UNK   900      10.854 -28.625 -76.887  1.00  0.00     0.114 C 
HETATM   11  C8  UNK   900      11.290 -29.588 -75.790  1.00  0.00     0.039 C 
BRANCH  10  12
HETATM   12  O2  UNK   900       9.448 -28.754 -77.078  1.00  0.00    -0.396 OA
HETATM   13  H14 UNK   900       9.009 -28.149 -76.455  1.00  0.00     0.210 HD
ENDBRANCH  10  12
ENDBRANCH   9  10
ENDBRANCH   8   9
ENDBRANCH   3   8
TORSDOF 4
ENDMDL
MODEL 7
REMARK VINA RESULT:      -3.8     26.460     27.853
REMARK  4 active torsions:
REMARK  status: ('A' for Active; 'I' for Inactive)
REMARK    1  A    between atoms: O2_2  and  C4_7 
REMARK    2  A    between atoms: C1_4  and  C2_5 
REMARK    3  A    between atoms: C1_4  and  C3_6 
REMARK    4  A    between atoms: C2_5  and  C4_7 
ROOT
HETATM    1  O1  UNK   900      26.576 -59.999 -37.940  1.00  0.00    -0.309 OA
HETATM    2  O3  UNK   900      26.063 -62.050 -38.844  1.00  0.00    -0.260 OA
HETATM    3  C3  UNK   900      24.347 -60.472 -38.303  1.00  0.00     0.016 A 
HETATM    4  C5  UNK   900      25.820 -58.855 -37.520  1.00  0.00     0.151 A 
HETATM    5  C6  UNK   900      24.420 -59.248 -37.787  1.00  0.00     0.018 A 
HETATM    6  C7  UNK   900      25.728 -60.962 -38.410  1.00  0.00     0.289 A 
HETATM    7  C9  UNK   900      26.262 -57.640 -38.318  1.00  0.00     0.044 C 
ENDROOT
BRANCH   3   8
HETATM    8  C1  UNK   900      23.154 -61.266 -38.717  1.00  0.00     0.047 C 
BRANCH   8   9
HETATM    9  C2  UNK   900      21.984 -60.364 -39.121  1.00  0.00     0.036 C 
BRANCH   9  10
HETATM   10  C4  UNK   900      20.629 -60.984 -38.762  1.00  0.00     0.114 C 
HETATM   11  C8  UNK   900      20.101 -60.432 -37.444  1.00  0.00     0.039 C 
BRANCH  10  12
HETATM   12  O2  UNK   900      20.779 -62.396 -38.642  1.00  0.00    -0.396 OA
HETATM   13  H14 UNK   900      21.729 -62.597 -38.705  1.00  0.00     0.210 HD
ENDBRANCH  10  12
ENDBRANCH   9  10
ENDBRANCH   8   9
ENDBRANCH   3   8
TORSDOF 4
ENDMDL
MODEL 8
REMARK VINA RESULT:      -3.6     38.569     39.773
REMARK  4 active torsions:
REMARK  status: ('A' for Active; 'I' for Inactive)
REMARK    1  A    between atoms: O2_2  and  C4_7 
REMARK    2  A    between atoms: C1_4  and  C2_5 
REMARK    3  A    between atoms: C1_4  and  C3_6 
REMARK    4  A    between atoms: C2_5  and  C4_7 
ROOT
HETATM    1  O1  UNK   900       9.405 -79.663 -63.998  1.00  0.00    -0.309 OA
HETATM    2  O3  UNK   900       9.557 -81.785 -64.870  1.00  0.00    -0.260 OA
HETATM    3  C3  UNK   900       7.464 -80.904 -64.119  1.00  0.00     0.016 A 
HETATM    4  C5  UNK   900       8.342 -78.850 -63.481  1.00  0.00     0.151 A 
HETATM    5  C6  UNK   900       7.153 -79.720 -63.597  1.00  0.00     0.018 A 
HETATM    6  C7  UNK   900       8.908 -80.875 -64.386  1.00  0.00     0.289 A 
HETATM    7  C9  UNK   900       8.235 -77.579 -64.306  1.00  0.00     0.044 C 
ENDROOT
BRANCH   3   8
HETATM    8  C1  UNK   900       6.592 -82.080 -64.410  1.00  0.00     0.047 C 
BRANCH   8   9
HETATM    9  C2  UNK   900       5.267 -81.659 -65.054  1.00  0.00     0.036 C 
BRANCH   9  10
HETATM   10  C4  UNK   900       5.350 -81.646 -66.583  1.00  0.00     0.114 C 
HETATM   11  C8  UNK   900       5.429 -80.223 -67.120  1.00  0.00     0.039 C 
BRANCH  10  12
HETATM   12  O2  UNK   900       4.189 -82.275 -67.119  1.00  0.00    -0.396 OA
HETATM   13  H14 UNK   900       4.467 -82.796 -67.892  1.00  0.00     0.210 HD
ENDBRANCH  10  12
ENDBRANCH   9  10
ENDBRANCH   8   9
ENDBRANCH   3   8
TORSDOF 4
ENDMDL
MODEL 9
REMARK VINA RESULT:      -3.5      2.917      4.563
REMARK  4 active torsions:
REMARK  status: ('A' for Active; 'I' for Inactive)
REMARK    1  A    between atoms: O2_2  and  C4_7 
REMARK    2  A    between atoms: C1_4  and  C2_5 
REMARK    3  A    between atoms: C1_4  and  C3_6 
REMARK    4  A    between atoms: C2_5  and  C4_7 
ROOT
HETATM    1  O1  UNK   900      35.357 -48.969 -62.801  1.00  0.00    -0.309 OA
HETATM    2  O3  UNK   900      33.322 -49.198 -63.849  1.00  0.00    -0.260 OA
HETATM    3  C3  UNK   900      33.567 -49.648 -61.512  1.00  0.00     0.016 A 
HETATM    4  C5  UNK   900      35.835 -49.143 -61.460  1.00  0.00     0.151 A 
HETATM    5  C6  UNK   900      34.632 -49.574 -60.717  1.00  0.00     0.018 A 
HETATM    6  C7  UNK   900      34.021 -49.256 -62.853  1.00  0.00     0.289 A 
HETATM    7  C9  UNK   900      36.409 -47.830 -60.957  1.00  0.00     0.044 C 
ENDROOT
BRANCH   3   8
HETATM    8  C1  UNK   900      32.163 -50.039 -61.196  1.00  0.00     0.047 C 
BRANCH   8   9
HETATM    9  C2  UNK   900      31.333 -48.842 -60.721  1.00  0.00     0.036 C 
BRANCH   9  10
HETATM   10  C4  UNK   900      30.109 -48.602 -61.611  1.00  0.00     0.114 C 
HETATM   11  C8  UNK   900      29.076 -49.709 -61.440  1.00  0.00     0.039 C 
BRANCH  10  12
HETATM   12  O2  UNK   900      30.522 -48.566 -62.974  1.00  0.00    -0.396 OA
HETATM   13  H14 UNK   900      30.166 -47.751 -63.368  1.00  0.00     0.210 HD
ENDBRANCH  10  12
ENDBRANCH   9  10
ENDBRANCH   8   9
ENDBRANCH   3   8
TORSDOF 4
ENDMDL
