MODEL 1
REMARK VINA RESULT:      -6.0      0.000      0.000
REMARK  15 active torsions:
REMARK  status: ('A' for Active; 'I' for Inactive)
REMARK    1  A    between atoms: O1_1  and  C1_10 
REMARK    2  A    between atoms: O2_2  and  C2_11 
REMARK    3  A    between atoms: O3_3  and  C3_12 
REMARK    4  A    between atoms: O4_4  and  C4_13 
REMARK    5  A    between atoms: O5_5  and  C5_14 
REMARK    6  A    between atoms: O5_5  and  C8_17 
REMARK    7  A    between atoms: O6_6  and  C6_15 
REMARK    8  A    between atoms: O7_7  and  C10_19 
REMARK    9  A    between atoms: O9_9  and  C13_22 
REMARK   10  A    between atoms: C1_10  and  C2_11 
REMARK   11  A    between atoms: C1_10  and  C3_12 
REMARK   12  A    between atoms: C2_11  and  C4_13 
REMARK   13  A    between atoms: C3_12  and  C5_14 
REMARK   14  A    between atoms: C4_13  and  C6_15 
REMARK   15  A    between atoms: C7_16  and  C8_17 
ROOT
HETATM    1  C3  UNK   900      33.800 -34.970 -58.296  1.00  0.00     0.173 C 
ENDROOT
BRANCH   1   2
HETATM    2  O3  UNK   900      32.396 -35.179 -58.102  1.00  0.00    -0.391 OA
HETATM    3  H11 UNK   900      32.020 -35.444 -58.959  1.00  0.00     0.210 HD
ENDBRANCH   1   2
BRANCH   1   4
HETATM    4  C1  UNK   900      34.556 -35.700 -57.168  1.00  0.00     0.180 C 
BRANCH   4   5
HETATM    5  O1  UNK   900      35.929 -35.308 -57.177  1.00  0.00    -0.390 OA
HETATM    6  H9  UNK   900      36.142 -35.013 -58.078  1.00  0.00     0.210 HD
ENDBRANCH   4   5
BRANCH   4   7
HETATM    7  C2  UNK   900      34.482 -37.233 -57.267  1.00  0.00     0.180 C 
BRANCH   7   8
HETATM    8  O2  UNK   900      35.681 -37.714 -57.877  1.00  0.00    -0.390 OA
HETATM    9  H10 UNK   900      36.349 -37.010 -57.803  1.00  0.00     0.210 HD
ENDBRANCH   7   8
BRANCH   7  10
HETATM   10  C4  UNK   900      34.277 -37.932 -55.908  1.00  0.00     0.173 C 
BRANCH  10  11
HETATM   11  O4  UNK   900      34.758 -37.059 -54.878  1.00  0.00    -0.391 OA
HETATM   12  H12 UNK   900      34.762 -36.156 -55.239  1.00  0.00     0.210 HD
ENDBRANCH  10  11
BRANCH  10  13
HETATM   13  C6  UNK   900      32.819 -38.248 -55.580  1.00  0.00     0.198 C 
BRANCH  13  14
HETATM   14  O6  UNK   900      32.006 -37.860 -56.685  1.00  0.00    -0.398 OA
HETATM   15  H13 UNK   900      31.578 -38.665 -57.020  1.00  0.00     0.209 HD
ENDBRANCH  13  14
ENDBRANCH  10  13
ENDBRANCH   7  10
ENDBRANCH   4   7
ENDBRANCH   1   4
BRANCH   1  16
HETATM   16  C5  UNK   900      34.027 -33.460 -58.326  1.00  0.00     0.213 C 
BRANCH  16  17
HETATM   17  O5  UNK   900      34.862 -33.121 -59.432  1.00  0.00    -0.315 OA
BRANCH  17  18
HETATM   18  C8  UNK   900      36.058 -32.552 -59.122  1.00  0.00     0.296 C 
HETATM   19  O8  UNK   900      36.661 -32.676 -58.068  1.00  0.00    -0.259 OA
BRANCH  18  20
HETATM   20  C7  UNK   900      36.558 -31.737 -60.257  1.00  0.00     0.078 A 
HETATM   21  C9  UNK   900      37.397 -32.306 -61.216  1.00  0.00    -0.040 A 
HETATM   22  C11 UNK   900      37.867 -31.534 -62.278  1.00  0.00     0.044 A 
HETATM   23  C14 UNK   900      37.810 -33.740 -61.129  1.00  0.00     0.049 C 
HETATM   24  C13 UNK   900      37.497 -30.193 -62.382  1.00  0.00     0.071 A 
HETATM   25  C12 UNK   900      36.659 -29.624 -61.424  1.00  0.00     0.074 A 
HETATM   26  C10 UNK   900      36.189 -30.397 -60.361  1.00  0.00     0.087 A 
BRANCH  24  27
HETATM   27  O9  UNK   900      37.955 -29.440 -63.420  1.00  0.00    -0.356 OA
HETATM   28  C16 UNK   900      39.364 -29.239 -63.504  1.00  0.00     0.210 C 
ENDBRANCH  24  27
BRANCH  26  29
HETATM   29  O7  UNK   900      35.371 -29.820 -59.436  1.00  0.00    -0.355 OA
HETATM   30  C15 UNK   900      34.310 -29.005 -59.929  1.00  0.00     0.210 C 
ENDBRANCH  26  29
ENDBRANCH  18  20
ENDBRANCH  17  18
ENDBRANCH  16  17
ENDBRANCH   1  16
TORSDOF 15
ENDMDL
MODEL 2
REMARK VINA RESULT:      -5.8     12.503     15.552
REMARK  15 active torsions:
REMARK  status: ('A' for Active; 'I' for Inactive)
REMARK    1  A    between atoms: O1_1  and  C1_10 
REMARK    2  A    between atoms: O2_2  and  C2_11 
REMARK    3  A    between atoms: O3_3  and  C3_12 
REMARK    4  A    between atoms: O4_4  and  C4_13 
REMARK    5  A    between atoms: O5_5  and  C5_14 
REMARK    6  A    between atoms: O5_5  and  C8_17 
REMARK    7  A    between atoms: O6_6  and  C6_15 
REMARK    8  A    between atoms: O7_7  and  C10_19 
REMARK    9  A    between atoms: O9_9  and  C13_22 
REMARK   10  A    between atoms: C1_10  and  C2_11 
REMARK   11  A    between atoms: C1_10  and  C3_12 
REMARK   12  A    between atoms: C2_11  and  C4_13 
REMARK   13  A    between atoms: C3_12  and  C5_14 
REMARK   14  A    between atoms: C4_13  and  C6_15 
REMARK   15  A    between atoms: C7_16  and  C8_17 
ROOT
HETATM    1  C3  UNK   900      30.095 -49.331 -60.665  1.00  0.00     0.173 C 
ENDROOT
BRANCH   1   2
HETATM    2  O3  UNK   900      29.671 -48.925 -59.358  1.00  0.00    -0.391 OA
HETATM    3  H11 UNK   900      28.911 -49.481 -59.113  1.00  0.00     0.210 HD
ENDBRANCH   1   2
BRANCH   1   4
HETATM    4  C1  UNK   900      31.422 -50.105 -60.521  1.00  0.00     0.180 C 
BRANCH   4   5
HETATM    5  O1  UNK   900      31.314 -51.049 -59.456  1.00  0.00    -0.390 OA
HETATM    6  H9  UNK   900      30.546 -50.795 -58.917  1.00  0.00     0.210 HD
ENDBRANCH   4   5
BRANCH   4   7
HETATM    7  C2  UNK   900      32.638 -49.201 -60.255  1.00  0.00     0.180 C 
BRANCH   7   8
HETATM    8  O2  UNK   900      32.749 -48.980 -58.849  1.00  0.00    -0.390 OA
HETATM    9  H10 UNK   900      31.885 -48.663 -58.534  1.00  0.00     0.210 HD
ENDBRANCH   7   8
BRANCH   7  10
HETATM   10  C4  UNK   900      33.963 -49.772 -60.796  1.00  0.00     0.173 C 
BRANCH  10  11
HETATM   11  O4  UNK   900      33.924 -49.718 -62.228  1.00  0.00    -0.391 OA
HETATM   12  H12 UNK   900      33.977 -50.632 -62.556  1.00  0.00     0.210 HD
ENDBRANCH  10  11
BRANCH  10  13
HETATM   13  C6  UNK   900      35.205 -49.001 -60.355  1.00  0.00     0.198 C 
BRANCH  13  14
HETATM   14  O6  UNK   900      34.857 -47.629 -60.187  1.00  0.00    -0.398 OA
HETATM   15  H13 UNK   900      33.891 -47.589 -60.097  1.00  0.00     0.209 HD
ENDBRANCH  13  14
ENDBRANCH  10  13
ENDBRANCH   7  10
ENDBRANCH   4   7
ENDBRANCH   1   4
BRANCH   1  16
HETATM   16  C5  UNK   900      30.198 -48.066 -61.515  1.00  0.00     0.213 C 
BRANCH  16  17
HETATM   17  O5  UNK   900      29.848 -48.365 -62.865  1.00  0.00    -0.315 OA
BRANCH  17  18
HETATM   18  C8  UNK   900      30.861 -48.295 -63.770  1.00  0.00     0.296 C 
HETATM   19  O8  UNK   900      31.616 -49.204 -64.077  1.00  0.00    -0.259 OA
BRANCH  18  20
HETATM   20  C7  UNK   900      30.939 -46.936 -64.362  1.00  0.00     0.078 A 
HETATM   21  C9  UNK   900      31.893 -46.025 -63.907  1.00  0.00    -0.040 A 
HETATM   22  C11 UNK   900      31.961 -44.749 -64.465  1.00  0.00     0.044 A 
HETATM   23  C14 UNK   900      32.855 -46.388 -62.822  1.00  0.00     0.049 C 
HETATM   24  C13 UNK   900      31.074 -44.384 -65.479  1.00  0.00     0.071 A 
HETATM   25  C12 UNK   900      30.121 -45.294 -65.934  1.00  0.00     0.074 A 
HETATM   26  C10 UNK   900      30.054 -46.571 -65.375  1.00  0.00     0.087 A 
BRANCH  24  27
HETATM   27  O9  UNK   900      31.140 -43.138 -66.025  1.00  0.00    -0.356 OA
HETATM   28  C16 UNK   900      32.102 -42.239 -65.476  1.00  0.00     0.210 C 
ENDBRANCH  24  27
BRANCH  26  29
HETATM   29  O7  UNK   900      29.114 -47.444 -65.835  1.00  0.00    -0.355 OA
HETATM   30  C15 UNK   900      27.797 -46.934 -66.029  1.00  0.00     0.210 C 
ENDBRANCH  26  29
ENDBRANCH  18  20
ENDBRANCH  17  18
ENDBRANCH  16  17
ENDBRANCH   1  16
TORSDOF 15
ENDMDL
MODEL 3
REMARK VINA RESULT:      -5.5      1.406      2.917
REMARK  15 active torsions:
REMARK  status: ('A' for Active; 'I' for Inactive)
REMARK    1  A    between atoms: O1_1  and  C1_10 
REMARK    2  A    between atoms: O2_2  and  C2_11 
REMARK    3  A    between atoms: O3_3  and  C3_12 
REMARK    4  A    between atoms: O4_4  and  C4_13 
REMARK    5  A    between atoms: O5_5  and  C5_14 
REMARK    6  A    between atoms: O5_5  and  C8_17 
REMARK    7  A    between atoms: O6_6  and  C6_15 
REMARK    8  A    between atoms: O7_7  and  C10_19 
REMARK    9  A    between atoms: O9_9  and  C13_22 
REMARK   10  A    between atoms: C1_10  and  C2_11 
REMARK   11  A    between atoms: C1_10  and  C3_12 
REMARK   12  A    between atoms: C2_11  and  C4_13 
REMARK   13  A    between atoms: C3_12  and  C5_14 
REMARK   14  A    between atoms: C4_13  and  C6_15 
REMARK   15  A    between atoms: C7_16  and  C8_17 
ROOT
HETATM    1  C3  UNK   900      34.729 -33.786 -57.881  1.00  0.00     0.173 C 
ENDROOT
BRANCH   1   2
HETATM    2  O3  UNK   900      35.879 -34.049 -57.069  1.00  0.00    -0.391 OA
HETATM    3  H11 UNK   900      36.647 -34.113 -57.663  1.00  0.00     0.210 HD
ENDBRANCH   1   2
BRANCH   1   4
HETATM    4  C1  UNK   900      34.834 -34.645 -59.157  1.00  0.00     0.180 C 
BRANCH   4   5
HETATM    5  O1  UNK   900      33.920 -34.158 -60.140  1.00  0.00    -0.390 OA
HETATM    6  H9  UNK   900      33.480 -34.929 -60.536  1.00  0.00     0.210 HD
ENDBRANCH   4   5
BRANCH   4   7
HETATM    7  C2  UNK   900      34.554 -36.139 -58.921  1.00  0.00     0.180 C 
BRANCH   7   8
HETATM    8  O2  UNK   900      35.717 -36.741 -58.352  1.00  0.00    -0.390 OA
HETATM    9  H10 UNK   900      35.847 -37.598 -58.792  1.00  0.00     0.210 HD
ENDBRANCH   7   8
BRANCH   7  10
HETATM   10  C4  UNK   900      33.336 -36.403 -58.013  1.00  0.00     0.173 C 
BRANCH  10  11
HETATM   11  O4  UNK   900      32.365 -37.139 -58.768  1.00  0.00    -0.391 OA
HETATM   12  H12 UNK   900      32.601 -38.080 -58.707  1.00  0.00     0.210 HD
ENDBRANCH  10  11
BRANCH  10  13
HETATM   13  C6  UNK   900      33.651 -37.229 -56.768  1.00  0.00     0.198 C 
BRANCH  13  14
HETATM   14  O6  UNK   900      34.366 -36.412 -55.844  1.00  0.00    -0.398 OA
HETATM   15  H13 UNK   900      34.287 -35.495 -56.154  1.00  0.00     0.209 HD
ENDBRANCH  13  14
ENDBRANCH  10  13
ENDBRANCH   7  10
ENDBRANCH   4   7
ENDBRANCH   1   4
BRANCH   1  16
HETATM   16  C5  UNK   900      34.700 -32.280 -58.140  1.00  0.00     0.213 C 
BRANCH  16  17
HETATM   17  O5  UNK   900      35.366 -31.992 -59.367  1.00  0.00    -0.315 OA
BRANCH  17  18
HETATM   18  C8  UNK   900      36.643 -31.536 -59.258  1.00  0.00     0.296 C 
HETATM   19  O8  UNK   900      37.349 -31.606 -58.264  1.00  0.00    -0.259 OA
BRANCH  18  20
HETATM   20  C7  UNK   900      37.092 -30.925 -60.534  1.00  0.00     0.078 A 
HETATM   21  C9  UNK   900      36.975 -29.549 -60.734  1.00  0.00    -0.040 A 
HETATM   22  C11 UNK   900      37.395 -28.980 -61.936  1.00  0.00     0.044 A 
HETATM   23  C14 UNK   900      36.402 -28.659 -59.678  1.00  0.00     0.049 C 
HETATM   24  C13 UNK   900      37.933 -29.788 -62.938  1.00  0.00     0.071 A 
HETATM   25  C12 UNK   900      38.050 -31.164 -62.739  1.00  0.00     0.074 A 
HETATM   26  C10 UNK   900      37.629 -31.732 -61.536  1.00  0.00     0.087 A 
BRANCH  24  27
HETATM   27  O9  UNK   900      38.345 -29.234 -64.112  1.00  0.00    -0.356 OA
HETATM   28  C16 UNK   900      39.141 -28.054 -64.028  1.00  0.00     0.210 C 
ENDBRANCH  24  27
BRANCH  26  29
HETATM   29  O7  UNK   900      37.752 -33.078 -61.363  1.00  0.00    -0.355 OA
HETATM   30  C15 UNK   900      39.059 -33.579 -61.095  1.00  0.00     0.210 C 
ENDBRANCH  26  29
ENDBRANCH  18  20
ENDBRANCH  17  18
ENDBRANCH  16  17
ENDBRANCH   1  16
TORSDOF 15
ENDMDL
MODEL 4
REMARK VINA RESULT:      -5.3      5.594      9.537
REMARK  15 active torsions:
REMARK  status: ('A' for Active; 'I' for Inactive)
REMARK    1  A    between atoms: O1_1  and  C1_10 
REMARK    2  A    between atoms: O2_2  and  C2_11 
REMARK    3  A    between atoms: O3_3  and  C3_12 
REMARK    4  A    between atoms: O4_4  and  C4_13 
REMARK    5  A    between atoms: O5_5  and  C5_14 
REMARK    6  A    between atoms: O5_5  and  C8_17 
REMARK    7  A    between atoms: O6_6  and  C6_15 
REMARK    8  A    between atoms: O7_7  and  C10_19 
REMARK    9  A    between atoms: O9_9  and  C13_22 
REMARK   10  A    between atoms: C1_10  and  C2_11 
REMARK   11  A    between atoms: C1_10  and  C3_12 
REMARK   12  A    between atoms: C2_11  and  C4_13 
REMARK   13  A    between atoms: C3_12  and  C5_14 
REMARK   14  A    between atoms: C4_13  and  C6_15 
REMARK   15  A    between atoms: C7_16  and  C8_17 
ROOT
HETATM    1  C3  UNK   900      36.110 -36.280 -55.687  1.00  0.00     0.173 C 
ENDROOT
BRANCH   1   2
HETATM    2  O3  UNK   900      35.538 -36.537 -54.399  1.00  0.00    -0.391 OA
HETATM    3  H11 UNK   900      36.028 -36.003 -53.750  1.00  0.00     0.210 HD
ENDBRANCH   1   2
BRANCH   1   4
HETATM    4  C1  UNK   900      35.125 -36.787 -56.760  1.00  0.00     0.180 C 
BRANCH   4   5
HETATM    5  O1  UNK   900      35.574 -36.381 -58.053  1.00  0.00    -0.390 OA
HETATM    6  H9  UNK   900      34.935 -36.719 -58.704  1.00  0.00     0.210 HD
ENDBRANCH   4   5
BRANCH   4   7
HETATM    7  C2  UNK   900      33.684 -36.289 -56.560  1.00  0.00     0.180 C 
BRANCH   7   8
HETATM    8  O2  UNK   900      33.435 -35.221 -57.475  1.00  0.00    -0.390 OA
HETATM    9  H10 UNK   900      32.660 -34.731 -57.148  1.00  0.00     0.210 HD
ENDBRANCH   7   8
BRANCH   7  10
HETATM   10  C4  UNK   900      32.619 -37.388 -56.745  1.00  0.00     0.173 C 
BRANCH  10  11
HETATM   11  O4  UNK   900      31.808 -37.430 -55.563  1.00  0.00    -0.391 OA
HETATM   12  H12 UNK   900      31.112 -38.093 -55.711  1.00  0.00     0.210 HD
ENDBRANCH  10  11
BRANCH  10  13
HETATM   13  C6  UNK   900      31.677 -37.156 -57.924  1.00  0.00     0.198 C 
BRANCH  13  14
HETATM   14  O6  UNK   900      30.573 -36.372 -57.481  1.00  0.00    -0.398 OA
HETATM   15  H13 UNK   900      30.869 -35.876 -56.701  1.00  0.00     0.209 HD
ENDBRANCH  13  14
ENDBRANCH  10  13
ENDBRANCH   7  10
ENDBRANCH   4   7
ENDBRANCH   1   4
BRANCH   1  16
HETATM   16  C5  UNK   900      37.474 -36.967 -55.715  1.00  0.00     0.213 C 
BRANCH  16  17
HETATM   17  O5  UNK   900      37.300 -38.382 -55.718  1.00  0.00    -0.315 OA
BRANCH  17  18
HETATM   18  C8  UNK   900      38.369 -39.111 -56.137  1.00  0.00     0.296 C 
HETATM   19  O8  UNK   900      38.876 -39.071 -57.247  1.00  0.00    -0.259 OA
BRANCH  18  20
HETATM   20  C7  UNK   900      38.862 -39.990 -55.047  1.00  0.00     0.078 A 
HETATM   21  C9  UNK   900      39.945 -39.595 -54.261  1.00  0.00    -0.040 A 
HETATM   22  C11 UNK   900      40.405 -40.426 -53.240  1.00  0.00     0.044 A 
HETATM   23  C14 UNK   900      40.632 -38.288 -54.491  1.00  0.00     0.049 C 
HETATM   24  C13 UNK   900      39.782 -41.652 -53.005  1.00  0.00     0.071 A 
HETATM   25  C12 UNK   900      38.700 -42.047 -53.790  1.00  0.00     0.074 A 
HETATM   26  C10 UNK   900      38.240 -41.215 -54.812  1.00  0.00     0.087 A 
BRANCH  24  27
HETATM   27  O9  UNK   900      40.231 -42.463 -52.007  1.00  0.00    -0.356 OA
HETATM   28  C16 UNK   900      41.644 -42.613 -51.879  1.00  0.00     0.210 C 
ENDBRANCH  24  27
BRANCH  26  29
HETATM   29  O7  UNK   900      37.180 -41.621 -55.568  1.00  0.00    -0.355 OA
HETATM   30  C15 UNK   900      35.896 -41.596 -54.949  1.00  0.00     0.210 C 
ENDBRANCH  26  29
ENDBRANCH  18  20
ENDBRANCH  17  18
ENDBRANCH  16  17
ENDBRANCH   1  16
TORSDOF 15
ENDMDL
MODEL 5
REMARK VINA RESULT:      -5.3     11.459     13.658
REMARK  15 active torsions:
REMARK  status: ('A' for Active; 'I' for Inactive)
REMARK    1  A    between atoms: O1_1  and  C1_10 
REMARK    2  A    between atoms: O2_2  and  C2_11 
REMARK    3  A    between atoms: O3_3  and  C3_12 
REMARK    4  A    between atoms: O4_4  and  C4_13 
REMARK    5  A    between atoms: O5_5  and  C5_14 
REMARK    6  A    between atoms: O5_5  and  C8_17 
REMARK    7  A    between atoms: O6_6  and  C6_15 
REMARK    8  A    between atoms: O7_7  and  C10_19 
REMARK    9  A    between atoms: O9_9  and  C13_22 
REMARK   10  A    between atoms: C1_10  and  C2_11 
REMARK   11  A    between atoms: C1_10  and  C3_12 
REMARK   12  A    between atoms: C2_11  and  C4_13 
REMARK   13  A    between atoms: C3_12  and  C5_14 
REMARK   14  A    between atoms: C4_13  and  C6_15 
REMARK   15  A    between atoms: C7_16  and  C8_17 
ROOT
HETATM    1  C3  UNK   900      31.646 -46.605 -61.353  1.00  0.00     0.173 C 
ENDROOT
BRANCH   1   2
HETATM    2  O3  UNK   900      30.457 -47.078 -61.999  1.00  0.00    -0.391 OA
HETATM    3  H11 UNK   900      30.298 -47.985 -61.688  1.00  0.00     0.210 HD
ENDBRANCH   1   2
BRANCH   1   4
HETATM    4  C1  UNK   900      31.422 -46.668 -59.828  1.00  0.00     0.180 C 
BRANCH   4   5
HETATM    5  O1  UNK   900      32.039 -45.542 -59.206  1.00  0.00    -0.390 OA
HETATM    6  H9  UNK   900      32.339 -45.823 -58.325  1.00  0.00     0.210 HD
ENDBRANCH   4   5
BRANCH   4   7
HETATM    7  C2  UNK   900      31.966 -47.951 -59.177  1.00  0.00     0.180 C 
BRANCH   7   8
HETATM    8  O2  UNK   900      32.346 -47.658 -57.831  1.00  0.00    -0.390 OA
HETATM    9  H10 UNK   900      33.268 -47.350 -57.849  1.00  0.00     0.210 HD
ENDBRANCH   7   8
BRANCH   7  10
HETATM   10  C4  UNK   900      30.965 -49.123 -59.189  1.00  0.00     0.173 C 
BRANCH  10  11
HETATM   11  O4  UNK   900      29.696 -48.625 -59.632  1.00  0.00    -0.391 OA
HETATM   12  H12 UNK   900      29.029 -48.909 -58.984  1.00  0.00     0.210 HD
ENDBRANCH  10  11
BRANCH  10  13
HETATM   13  C6  UNK   900      31.349 -50.264 -60.128  1.00  0.00     0.198 C 
BRANCH  13  14
HETATM   14  O6  UNK   900      31.773 -51.378 -59.347  1.00  0.00    -0.398 OA
HETATM   15  H13 UNK   900      32.633 -51.145 -58.961  1.00  0.00     0.209 HD
ENDBRANCH  13  14
ENDBRANCH  10  13
ENDBRANCH   7  10
ENDBRANCH   4   7
ENDBRANCH   1   4
BRANCH   1  16
HETATM   16  C5  UNK   900      31.918 -45.201 -61.888  1.00  0.00     0.213 C 
BRANCH  16  17
HETATM   17  O5  UNK   900      31.459 -45.103 -63.235  1.00  0.00    -0.315 OA
BRANCH  17  18
HETATM   18  C8  UNK   900      32.424 -44.959 -64.183  1.00  0.00     0.296 C 
HETATM   19  O8  UNK   900      33.497 -45.541 -64.211  1.00  0.00    -0.259 OA
BRANCH  18  20
HETATM   20  C7  UNK   900      32.001 -43.979 -65.214  1.00  0.00     0.078 A 
HETATM   21  C9  UNK   900      32.177 -42.612 -64.999  1.00  0.00    -0.040 A 
HETATM   22  C11 UNK   900      31.776 -41.695 -65.971  1.00  0.00     0.044 A 
HETATM   23  C14 UNK   900      32.792 -42.100 -63.736  1.00  0.00     0.049 C 
HETATM   24  C13 UNK   900      31.200 -42.147 -67.159  1.00  0.00     0.071 A 
HETATM   25  C12 UNK   900      31.023 -43.513 -67.374  1.00  0.00     0.074 A 
HETATM   26  C10 UNK   900      31.425 -44.429 -66.401  1.00  0.00     0.087 A 
BRANCH  24  27
HETATM   27  O9  UNK   900      30.808 -41.252 -68.108  1.00  0.00    -0.356 OA
HETATM   28  C16 UNK   900      30.252 -40.022 -67.650  1.00  0.00     0.210 C 
ENDBRANCH  24  27
BRANCH  26  29
HETATM   29  O7  UNK   900      31.243 -45.761 -66.632  1.00  0.00    -0.355 OA
HETATM   30  C15 UNK   900      31.580 -46.243 -67.931  1.00  0.00     0.210 C 
ENDBRANCH  26  29
ENDBRANCH  18  20
ENDBRANCH  17  18
ENDBRANCH  16  17
ENDBRANCH   1  16
TORSDOF 15
ENDMDL
MODEL 6
REMARK VINA RESULT:      -5.2     12.629     14.717
REMARK  15 active torsions:
REMARK  status: ('A' for Active; 'I' for Inactive)
REMARK    1  A    between atoms: O1_1  and  C1_10 
REMARK    2  A    between atoms: O2_2  and  C2_11 
REMARK    3  A    between atoms: O3_3  and  C3_12 
REMARK    4  A    between atoms: O4_4  and  C4_13 
REMARK    5  A    between atoms: O5_5  and  C5_14 
REMARK    6  A    between atoms: O5_5  and  C8_17 
REMARK    7  A    between atoms: O6_6  and  C6_15 
REMARK    8  A    between atoms: O7_7  and  C10_19 
REMARK    9  A    between atoms: O9_9  and  C13_22 
REMARK   10  A    between atoms: C1_10  and  C2_11 
REMARK   11  A    between atoms: C1_10  and  C3_12 
REMARK   12  A    between atoms: C2_11  and  C4_13 
REMARK   13  A    between atoms: C3_12  and  C5_14 
REMARK   14  A    between atoms: C4_13  and  C6_15 
REMARK   15  A    between atoms: C7_16  and  C8_17 
ROOT
HETATM    1  C3  UNK   900      31.725 -48.568 -61.589  1.00  0.00     0.173 C 
ENDROOT
BRANCH   1   2
HETATM    2  O3  UNK   900      30.857 -49.456 -62.303  1.00  0.00    -0.391 OA
HETATM    3  H11 UNK   900      31.204 -49.538 -63.208  1.00  0.00     0.210 HD
ENDBRANCH   1   2
BRANCH   1   4
HETATM    4  C1  UNK   900      30.886 -47.821 -60.532  1.00  0.00     0.180 C 
BRANCH   4   5
HETATM    5  O1  UNK   900      31.157 -46.422 -60.605  1.00  0.00    -0.390 OA
HETATM    6  H9  UNK   900      30.575 -45.978 -59.965  1.00  0.00     0.210 HD
ENDBRANCH   4   5
BRANCH   4   7
HETATM    7  C2  UNK   900      31.142 -48.298 -59.092  1.00  0.00     0.180 C 
BRANCH   7   8
HETATM    8  O2  UNK   900      30.988 -49.717 -59.043  1.00  0.00    -0.390 OA
HETATM    9  H10 UNK   900      30.736 -49.952 -58.134  1.00  0.00     0.210 HD
ENDBRANCH   7   8
BRANCH   7  10
HETATM   10  C4  UNK   900      32.531 -47.908 -58.549  1.00  0.00     0.173 C 
BRANCH  10  11
HETATM   11  O4  UNK   900      32.435 -47.776 -57.125  1.00  0.00    -0.391 OA
HETATM   12  H12 UNK   900      31.615 -47.290 -56.932  1.00  0.00     0.210 HD
ENDBRANCH  10  11
BRANCH  10  13
HETATM   13  C6  UNK   900      33.624 -48.937 -58.828  1.00  0.00     0.198 C 
BRANCH  13  14
HETATM   14  O6  UNK   900      34.663 -48.311 -59.576  1.00  0.00    -0.398 OA
HETATM   15  H13 UNK   900      35.119 -47.699 -58.974  1.00  0.00     0.209 HD
ENDBRANCH  13  14
ENDBRANCH  10  13
ENDBRANCH   7  10
ENDBRANCH   4   7
ENDBRANCH   1   4
BRANCH   1  16
HETATM   16  C5  UNK   900      32.381 -47.656 -62.625  1.00  0.00     0.213 C 
BRANCH  16  17
HETATM   17  O5  UNK   900      31.384 -46.869 -63.272  1.00  0.00    -0.315 OA
BRANCH  17  18
HETATM   18  C8  UNK   900      31.159 -47.154 -64.583  1.00  0.00     0.296 C 
HETATM   19  O8  UNK   900      30.924 -48.259 -65.048  1.00  0.00    -0.259 OA
BRANCH  18  20
HETATM   20  C7  UNK   900      31.235 -45.922 -65.408  1.00  0.00     0.078 A 
HETATM   21  C9  UNK   900      32.469 -45.452 -65.858  1.00  0.00    -0.040 A 
HETATM   22  C11 UNK   900      32.535 -44.293 -66.630  1.00  0.00     0.044 A 
HETATM   23  C14 UNK   900      33.738 -46.171 -65.527  1.00  0.00     0.049 C 
HETATM   24  C13 UNK   900      31.366 -43.603 -66.952  1.00  0.00     0.071 A 
HETATM   25  C12 UNK   900      30.132 -44.072 -66.502  1.00  0.00     0.074 A 
HETATM   26  C10 UNK   900      30.067 -45.233 -65.730  1.00  0.00     0.087 A 
BRANCH  24  27
HETATM   27  O9  UNK   900      31.429 -42.472 -67.706  1.00  0.00    -0.356 OA
HETATM   28  C16 UNK   900      31.159 -41.236 -67.047  1.00  0.00     0.210 C 
ENDBRANCH  24  27
BRANCH  26  29
HETATM   29  O7  UNK   900      28.851 -45.673 -65.300  1.00  0.00    -0.355 OA
HETATM   30  C15 UNK   900      28.068 -46.418 -66.230  1.00  0.00     0.210 C 
ENDBRANCH  26  29
ENDBRANCH  18  20
ENDBRANCH  17  18
ENDBRANCH  16  17
ENDBRANCH   1  16
TORSDOF 15
ENDMDL
MODEL 7
REMARK VINA RESULT:      -5.1      4.463      9.246
REMARK  15 active torsions:
REMARK  status: ('A' for Active; 'I' for Inactive)
REMARK    1  A    between atoms: O1_1  and  C1_10 
REMARK    2  A    between atoms: O2_2  and  C2_11 
REMARK    3  A    between atoms: O3_3  and  C3_12 
REMARK    4  A    between atoms: O4_4  and  C4_13 
REMARK    5  A    between atoms: O5_5  and  C5_14 
REMARK    6  A    between atoms: O5_5  and  C8_17 
REMARK    7  A    between atoms: O6_6  and  C6_15 
REMARK    8  A    between atoms: O7_7  and  C10_19 
REMARK    9  A    between atoms: O9_9  and  C13_22 
REMARK   10  A    between atoms: C1_10  and  C2_11 
REMARK   11  A    between atoms: C1_10  and  C3_12 
REMARK   12  A    between atoms: C2_11  and  C4_13 
REMARK   13  A    between atoms: C3_12  and  C5_14 
REMARK   14  A    between atoms: C4_13  and  C6_15 
REMARK   15  A    between atoms: C7_16  and  C8_17 
ROOT
HETATM    1  C3  UNK   900      35.245 -37.002 -55.847  1.00  0.00     0.173 C 
ENDROOT
BRANCH   1   2
HETATM    2  O3  UNK   900      35.497 -36.660 -54.479  1.00  0.00    -0.391 OA
HETATM    3  H11 UNK   900      34.898 -35.930 -54.246  1.00  0.00     0.210 HD
ENDBRANCH   1   2
BRANCH   1   4
HETATM    4  C1  UNK   900      34.095 -36.114 -56.361  1.00  0.00     0.180 C 
BRANCH   4   5
HETATM    5  O1  UNK   900      32.967 -36.928 -56.684  1.00  0.00    -0.390 OA
HETATM    6  H9  UNK   900      33.284 -37.842 -56.780  1.00  0.00     0.210 HD
ENDBRANCH   4   5
BRANCH   4   7
HETATM    7  C2  UNK   900      34.466 -35.276 -57.596  1.00  0.00     0.180 C 
BRANCH   7   8
HETATM    8  O2  UNK   900      35.375 -34.249 -57.199  1.00  0.00    -0.390 OA
HETATM    9  H10 UNK   900      34.892 -33.406 -57.223  1.00  0.00     0.210 HD
ENDBRANCH   7   8
BRANCH   7  10
HETATM   10  C4  UNK   900      35.086 -36.103 -58.741  1.00  0.00     0.173 C 
BRANCH  10  11
HETATM   11  O4  UNK   900      34.059 -36.929 -59.305  1.00  0.00    -0.391 OA
HETATM   12  H12 UNK   900      33.307 -36.352 -59.521  1.00  0.00     0.210 HD
ENDBRANCH  10  11
BRANCH  10  13
HETATM   13  C6  UNK   900      35.659 -35.264 -59.881  1.00  0.00     0.198 C 
BRANCH  13  14
HETATM   14  O6  UNK   900      34.707 -34.265 -60.239  1.00  0.00    -0.398 OA
HETATM   15  H13 UNK   900      34.019 -34.268 -59.553  1.00  0.00     0.209 HD
ENDBRANCH  13  14
ENDBRANCH  10  13
ENDBRANCH   7  10
ENDBRANCH   4   7
ENDBRANCH   1   4
BRANCH   1  16
HETATM   16  C5  UNK   900      34.946 -38.500 -55.885  1.00  0.00     0.213 C 
BRANCH  16  17
HETATM   17  O5  UNK   900      36.159 -39.236 -55.747  1.00  0.00    -0.315 OA
BRANCH  17  18
HETATM   18  C8  UNK   900      36.047 -40.589 -55.839  1.00  0.00     0.296 C 
HETATM   19  O8  UNK   900      35.073 -41.253 -55.521  1.00  0.00    -0.259 OA
BRANCH  18  20
HETATM   20  C7  UNK   900      37.292 -41.180 -56.391  1.00  0.00     0.078 A 
HETATM   21  C9  UNK   900      37.471 -41.281 -57.771  1.00  0.00    -0.040 A 
HETATM   22  C11 UNK   900      38.641 -41.840 -58.284  1.00  0.00     0.044 A 
HETATM   23  C14 UNK   900      36.425 -40.799 -58.724  1.00  0.00     0.049 C 
HETATM   24  C13 UNK   900      39.633 -42.298 -57.416  1.00  0.00     0.071 A 
HETATM   25  C12 UNK   900      39.454 -42.198 -56.036  1.00  0.00     0.074 A 
HETATM   26  C10 UNK   900      38.283 -41.639 -55.524  1.00  0.00     0.087 A 
BRANCH  24  27
HETATM   27  O9  UNK   900      40.776 -42.843 -57.915  1.00  0.00    -0.356 OA
HETATM   28  C16 UNK   900      41.972 -42.077 -57.785  1.00  0.00     0.210 C 
ENDBRANCH  24  27
BRANCH  26  29
HETATM   29  O7  UNK   900      38.129 -41.551 -54.172  1.00  0.00    -0.355 OA
HETATM   30  C15 UNK   900      39.295 -41.744 -53.375  1.00  0.00     0.210 C 
ENDBRANCH  26  29
ENDBRANCH  18  20
ENDBRANCH  17  18
ENDBRANCH  16  17
ENDBRANCH   1  16
TORSDOF 15
ENDMDL
MODEL 8
REMARK VINA RESULT:      -5.1     13.080     16.490
REMARK  15 active torsions:
REMARK  status: ('A' for Active; 'I' for Inactive)
REMARK    1  A    between atoms: O1_1  and  C1_10 
REMARK    2  A    between atoms: O2_2  and  C2_11 
REMARK    3  A    between atoms: O3_3  and  C3_12 
REMARK    4  A    between atoms: O4_4  and  C4_13 
REMARK    5  A    between atoms: O5_5  and  C5_14 
REMARK    6  A    between atoms: O5_5  and  C8_17 
REMARK    7  A    between atoms: O6_6  and  C6_15 
REMARK    8  A    between atoms: O7_7  and  C10_19 
REMARK    9  A    between atoms: O9_9  and  C13_22 
REMARK   10  A    between atoms: C1_10  and  C2_11 
REMARK   11  A    between atoms: C1_10  and  C3_12 
REMARK   12  A    between atoms: C2_11  and  C4_13 
REMARK   13  A    between atoms: C3_12  and  C5_14 
REMARK   14  A    between atoms: C4_13  and  C6_15 
REMARK   15  A    between atoms: C7_16  and  C8_17 
ROOT
HETATM    1  C3  UNK   900      32.924 -44.012 -66.025  1.00  0.00     0.173 C 
ENDROOT
BRANCH   1   2
HETATM    2  O3  UNK   900      32.775 -42.787 -66.754  1.00  0.00    -0.391 OA
HETATM    3  H11 UNK   900      33.624 -42.605 -67.193  1.00  0.00     0.210 HD
ENDBRANCH   1   2
BRANCH   1   4
HETATM    4  C1  UNK   900      32.682 -45.183 -66.998  1.00  0.00     0.180 C 
BRANCH   4   5
HETATM    5  O1  UNK   900      33.670 -45.165 -68.027  1.00  0.00    -0.390 OA
HETATM    6  H9  UNK   900      34.117 -44.303 -67.987  1.00  0.00     0.210 HD
ENDBRANCH   4   5
BRANCH   4   7
HETATM    7  C2  UNK   900      31.289 -45.166 -67.651  1.00  0.00     0.180 C 
BRANCH   7   8
HETATM    8  O2  UNK   900      31.384 -44.514 -68.918  1.00  0.00    -0.390 OA
HETATM    9  H10 UNK   900      32.161 -43.929 -68.888  1.00  0.00     0.210 HD
ENDBRANCH   7   8
BRANCH   7  10
HETATM   10  C4  UNK   900      30.674 -46.567 -67.834  1.00  0.00     0.173 C 
BRANCH  10  11
HETATM   11  O4  UNK   900      29.470 -46.634 -67.059  1.00  0.00    -0.391 OA
HETATM   12  H12 UNK   900      28.880 -47.273 -67.492  1.00  0.00     0.210 HD
ENDBRANCH  10  11
BRANCH  10  13
HETATM   13  C6  UNK   900      30.296 -46.902 -69.275  1.00  0.00     0.198 C 
BRANCH  13  14
HETATM   14  O6  UNK   900      29.306 -47.928 -69.263  1.00  0.00    -0.398 OA
HETATM   15  H13 UNK   900      28.863 -47.906 -70.126  1.00  0.00     0.209 HD
ENDBRANCH  13  14
ENDBRANCH  10  13
ENDBRANCH   7  10
ENDBRANCH   4   7
ENDBRANCH   1   4
BRANCH   1  16
HETATM   16  C5  UNK   900      31.943 -43.956 -64.855  1.00  0.00     0.213 C 
BRANCH  16  17
HETATM   17  O5  UNK   900      32.150 -45.079 -64.001  1.00  0.00    -0.315 OA
BRANCH  17  18
HETATM   18  C8  UNK   900      31.103 -45.939 -63.884  1.00  0.00     0.296 C 
HETATM   19  O8  UNK   900      30.014 -45.824 -64.426  1.00  0.00    -0.259 OA
BRANCH  18  20
HETATM   20  C7  UNK   900      31.453 -47.071 -62.991  1.00  0.00     0.078 A 
HETATM   21  C9  UNK   900      31.029 -47.075 -61.662  1.00  0.00    -0.040 A 
HETATM   22  C11 UNK   900      31.363 -48.141 -60.826  1.00  0.00     0.044 A 
HETATM   23  C14 UNK   900      30.217 -45.951 -61.105  1.00  0.00     0.049 C 
HETATM   24  C13 UNK   900      32.120 -49.203 -61.321  1.00  0.00     0.071 A 
HETATM   25  C12 UNK   900      32.544 -49.200 -62.649  1.00  0.00     0.074 A 
HETATM   26  C10 UNK   900      32.209 -48.133 -63.484  1.00  0.00     0.087 A 
BRANCH  24  27
HETATM   27  O9  UNK   900      32.446 -50.244 -60.506  1.00  0.00    -0.356 OA
HETATM   28  C16 UNK   900      33.596 -50.084 -59.677  1.00  0.00     0.210 C 
ENDBRANCH  24  27
BRANCH  26  29
HETATM   29  O7  UNK   900      32.635 -48.150 -64.780  1.00  0.00    -0.355 OA
HETATM   30  C15 UNK   900      34.032 -47.974 -65.004  1.00  0.00     0.210 C 
ENDBRANCH  26  29
ENDBRANCH  18  20
ENDBRANCH  17  18
ENDBRANCH  16  17
ENDBRANCH   1  16
TORSDOF 15
ENDMDL
MODEL 9
REMARK VINA RESULT:      -4.9     12.465     15.930
REMARK  15 active torsions:
REMARK  status: ('A' for Active; 'I' for Inactive)
REMARK    1  A    between atoms: O1_1  and  C1_10 
REMARK    2  A    between atoms: O2_2  and  C2_11 
REMARK    3  A    between atoms: O3_3  and  C3_12 
REMARK    4  A    between atoms: O4_4  and  C4_13 
REMARK    5  A    between atoms: O5_5  and  C5_14 
REMARK    6  A    between atoms: O5_5  and  C8_17 
REMARK    7  A    between atoms: O6_6  and  C6_15 
REMARK    8  A    between atoms: O7_7  and  C10_19 
REMARK    9  A    between atoms: O9_9  and  C13_22 
REMARK   10  A    between atoms: C1_10  and  C2_11 
REMARK   11  A    between atoms: C1_10  and  C3_12 
REMARK   12  A    between atoms: C2_11  and  C4_13 
REMARK   13  A    between atoms: C3_12  and  C5_14 
REMARK   14  A    between atoms: C4_13  and  C6_15 
REMARK   15  A    between atoms: C7_16  and  C8_17 
ROOT
HETATM    1  C3  UNK   900      30.889 -45.563 -64.101  1.00  0.00     0.173 C 
ENDROOT
BRANCH   1   2
HETATM    2  O3  UNK   900      30.835 -46.986 -63.937  1.00  0.00    -0.391 OA
HETATM    3  H11 UNK   900      30.722 -47.166 -62.988  1.00  0.00     0.210 HD
ENDBRANCH   1   2
BRANCH   1   4
HETATM    4  C1  UNK   900      30.297 -45.215 -65.482  1.00  0.00     0.180 C 
BRANCH   4   5
HETATM    5  O1  UNK   900      28.873 -45.182 -65.400  1.00  0.00    -0.390 OA
HETATM    6  H9  UNK   900      28.635 -44.566 -64.686  1.00  0.00     0.210 HD
ENDBRANCH   4   5
BRANCH   4   7
HETATM    7  C2  UNK   900      30.704 -46.198 -66.593  1.00  0.00     0.180 C 
BRANCH   7   8
HETATM    8  O2  UNK   900      29.710 -47.219 -66.691  1.00  0.00    -0.390 OA
HETATM    9  H10 UNK   900      29.159 -47.016 -67.466  1.00  0.00     0.210 HD
ENDBRANCH   7   8
BRANCH   7  10
HETATM   10  C4  UNK   900      30.899 -45.531 -67.968  1.00  0.00     0.173 C 
BRANCH  10  11
HETATM   11  O4  UNK   900      31.657 -44.328 -67.781  1.00  0.00    -0.391 OA
HETATM   12  H12 UNK   900      31.512 -43.768 -68.561  1.00  0.00     0.210 HD
ENDBRANCH  10  11
BRANCH  10  13
HETATM   13  C6  UNK   900      31.661 -46.386 -68.978  1.00  0.00     0.198 C 
BRANCH  13  14
HETATM   14  O6  UNK   900      32.661 -45.582 -69.597  1.00  0.00    -0.398 OA
HETATM   15  H13 UNK   900      32.519 -44.669 -69.298  1.00  0.00     0.209 HD
ENDBRANCH  13  14
ENDBRANCH  10  13
ENDBRANCH   7  10
ENDBRANCH   4   7
ENDBRANCH   1   4
BRANCH   1  16
HETATM   16  C5  UNK   900      32.347 -45.147 -63.921  1.00  0.00     0.213 C 
BRANCH  16  17
HETATM   17  O5  UNK   900      32.526 -44.564 -62.632  1.00  0.00    -0.315 OA
BRANCH  17  18
HETATM   18  C8  UNK   900      33.591 -45.015 -61.918  1.00  0.00     0.296 C 
HETATM   19  O8  UNK   900      34.689 -44.484 -61.851  1.00  0.00    -0.259 OA
BRANCH  18  20
HETATM   20  C7  UNK   900      33.249 -46.272 -61.205  1.00  0.00     0.078 A 
HETATM   21  C9  UNK   900      32.423 -46.240 -60.081  1.00  0.00    -0.040 A 
HETATM   22  C11 UNK   900      32.107 -47.423 -59.414  1.00  0.00     0.044 A 
HETATM   23  C14 UNK   900      31.862 -44.952 -59.569  1.00  0.00     0.049 C 
HETATM   24  C13 UNK   900      32.617 -48.638 -59.871  1.00  0.00     0.071 A 
HETATM   25  C12 UNK   900      33.443 -48.671 -60.994  1.00  0.00     0.074 A 
HETATM   26  C10 UNK   900      33.759 -47.486 -61.661  1.00  0.00     0.087 A 
BRANCH  24  27
HETATM   27  O9  UNK   900      32.308 -49.793 -59.220  1.00  0.00    -0.356 OA
HETATM   28  C16 UNK   900      31.661 -50.813 -59.979  1.00  0.00     0.210 C 
ENDBRANCH  24  27
BRANCH  26  29
HETATM   29  O7  UNK   900      34.569 -47.541 -62.756  1.00  0.00    -0.355 OA
HETATM   30  C15 UNK   900      35.094 -48.819 -63.109  1.00  0.00     0.210 C 
ENDBRANCH  26  29
ENDBRANCH  18  20
ENDBRANCH  17  18
ENDBRANCH  16  17
ENDBRANCH   1  16
TORSDOF 15
ENDMDL
