MODEL 1
REMARK VINA RESULT:      -5.0      0.000      0.000
REMARK  5 active torsions:
REMARK  status: ('A' for Active; 'I' for Inactive)
REMARK    1  A    between atoms: O2_2  and  C4_10 
REMARK    2  A    between atoms: O2_2  and  C6_12 
REMARK    3  A    between atoms: O3_3  and  C3_9 
REMARK    4  A    between atoms: O4_4  and  C1_7 
REMARK    5  A    between atoms: O5_5  and  C2_8 
ROOT
HETATM    1  O1  UNK   900       9.174 -46.624 -94.606  1.00  0.00    -0.356 OA
HETATM    2  C1  UNK   900       9.889 -44.120 -95.857  1.00  0.00     0.182 C 
HETATM    3  C2  UNK   900      10.942 -45.150 -95.428  1.00  0.00     0.205 C 
HETATM    4  C3  UNK   900       8.569 -44.312 -95.106  1.00  0.00     0.176 C 
HETATM    5  C4  UNK   900      10.378 -46.573 -95.377  1.00  0.00     0.297 C 
HETATM    6  C5  UNK   900       8.137 -45.775 -95.101  1.00  0.00     0.205 C 
ENDROOT
BRANCH   5   7
HETATM    7  O2  UNK   900      10.193 -47.070 -96.698  1.00  0.00    -0.315 OA
BRANCH   7   8
HETATM    8  C6  UNK   900      11.280 -47.654 -97.290  1.00  0.00     0.101 A 
HETATM    9  C7  UNK   900      11.802 -47.125 -98.468  1.00  0.00     0.100 A 
HETATM   10  N1  UNK   900      11.238 -46.038 -99.027  1.00  0.00    -0.250 NA
HETATM   11  C9  UNK   900      12.923 -47.761 -99.041  1.00  0.00    -0.004 A 
HETATM   12  C14 UNK   900      11.776 -45.555-100.171  1.00  0.00     0.031 A 
HETATM   13  C15 UNK   900      12.871 -46.109-100.805  1.00  0.00     0.027 A 
HETATM   14  C16 UNK   900      11.122 -44.350-100.759  1.00  0.00     0.070 C 
HETATM   15  C13 UNK   900      13.449 -47.228-100.226  1.00  0.00     0.016 A 
HETATM   16  C11 UNK   900      13.485 -48.895 -98.430  1.00  0.00     0.014 A 
HETATM   17  C12 UNK   900      12.943 -49.402 -97.253  1.00  0.00     0.004 A 
HETATM   18  C10 UNK   900      11.839 -48.782 -96.683  1.00  0.00     0.039 A 
ENDBRANCH   7   8
ENDBRANCH   5   7
BRANCH   3  19
HETATM   19  O5  UNK   900      11.430 -44.824 -94.127  1.00  0.00    -0.388 OA
HETATM   20  H8  UNK   900      12.196 -45.394 -93.948  1.00  0.00     0.210 HD
ENDBRANCH   3  19
BRANCH   2  21
HETATM   21  O4  UNK   900       9.630 -44.252 -97.253  1.00  0.00    -0.390 OA
HETATM   22  H7  UNK   900       9.142 -43.461 -97.538  1.00  0.00     0.210 HD
ENDBRANCH   2  21
BRANCH   4  23
HETATM   23  O3  UNK   900       8.709 -43.886 -93.752  1.00  0.00    -0.386 OA
HETATM   24  C8  UNK   900       8.805 -42.471 -93.660  1.00  0.00     0.202 C 
ENDBRANCH   4  23
TORSDOF 5
ENDMDL
MODEL 2
REMARK VINA RESULT:      -5.0     37.903     39.813
REMARK  5 active torsions:
REMARK  status: ('A' for Active; 'I' for Inactive)
REMARK    1  A    between atoms: O2_2  and  C4_10 
REMARK    2  A    between atoms: O2_2  and  C6_12 
REMARK    3  A    between atoms: O3_3  and  C3_9 
REMARK    4  A    between atoms: O4_4  and  C1_7 
REMARK    5  A    between atoms: O5_5  and  C2_8 
ROOT
HETATM    1  O1  UNK   900      15.490 -65.066 -65.611  1.00  0.00    -0.356 OA
HETATM    2  C1  UNK   900      17.857 -66.684 -65.957  1.00  0.00     0.182 C 
HETATM    3  C2  UNK   900      17.203 -66.475 -64.585  1.00  0.00     0.205 C 
HETATM    4  C3  UNK   900      17.468 -65.582 -66.945  1.00  0.00     0.176 C 
HETATM    5  C4  UNK   900      15.712 -66.143 -64.696  1.00  0.00     0.297 C 
HETATM    6  C5  UNK   900      15.964 -65.326 -66.933  1.00  0.00     0.205 C 
ENDROOT
BRANCH   5   7
HETATM    7  O2  UNK   900      14.979 -67.311 -65.050  1.00  0.00    -0.315 OA
BRANCH   7   8
HETATM    8  C6  UNK   900      14.329 -67.957 -64.034  1.00  0.00     0.101 A 
HETATM    9  C7  UNK   900      14.840 -69.148 -63.524  1.00  0.00     0.100 A 
HETATM   10  N1  UNK   900      15.974 -69.667 -64.030  1.00  0.00    -0.250 NA
HETATM   11  C9  UNK   900      14.135 -69.778 -62.476  1.00  0.00    -0.004 A 
HETATM   12  C14 UNK   900      16.437 -70.826 -63.506  1.00  0.00     0.031 A 
HETATM   13  C15 UNK   900      15.818 -71.514 -62.482  1.00  0.00     0.027 A 
HETATM   14  C16 UNK   900      17.696 -71.367 -64.095  1.00  0.00     0.070 C 
HETATM   15  C13 UNK   900      14.650 -70.977 -61.963  1.00  0.00     0.016 A 
HETATM   16  C11 UNK   900      12.953 -69.208 -61.973  1.00  0.00     0.014 A 
HETATM   17  C12 UNK   900      12.466 -68.016 -62.502  1.00  0.00     0.004 A 
HETATM   18  C10 UNK   900      13.154 -67.391 -63.533  1.00  0.00     0.039 A 
ENDBRANCH   7   8
ENDBRANCH   5   7
BRANCH   3  19
HETATM   19  O5  UNK   900      17.845 -65.396 -63.907  1.00  0.00    -0.388 OA
HETATM   20  H8  UNK   900      18.601 -65.764 -63.418  1.00  0.00     0.210 HD
ENDBRANCH   3  19
BRANCH   2  21
HETATM   21  O4  UNK   900      17.443 -67.935 -66.502  1.00  0.00    -0.390 OA
HETATM   22  H7  UNK   900      17.820 -68.007 -67.394  1.00  0.00     0.210 HD
ENDBRANCH   2  21
BRANCH   4  23
HETATM   23  O3  UNK   900      18.128 -64.364 -66.605  1.00  0.00    -0.386 OA
HETATM   24  C8  UNK   900      19.511 -64.415 -66.924  1.00  0.00     0.202 C 
ENDBRANCH   4  23
TORSDOF 5
ENDMDL
MODEL 3
REMARK VINA RESULT:      -4.9      1.998      3.105
REMARK  5 active torsions:
REMARK  status: ('A' for Active; 'I' for Inactive)
REMARK    1  A    between atoms: O2_2  and  C4_10 
REMARK    2  A    between atoms: O2_2  and  C6_12 
REMARK    3  A    between atoms: O3_3  and  C3_9 
REMARK    4  A    between atoms: O4_4  and  C1_7 
REMARK    5  A    between atoms: O5_5  and  C2_8 
ROOT
HETATM    1  O1  UNK   900       8.212 -43.577 -96.419  1.00  0.00    -0.356 OA
HETATM    2  C1  UNK   900       8.259 -42.555 -93.718  1.00  0.00     0.182 C 
HETATM    3  C2  UNK   900       7.936 -44.022 -94.032  1.00  0.00     0.205 C 
HETATM    4  C3  UNK   900       8.026 -41.651 -94.931  1.00  0.00     0.176 C 
HETATM    5  C4  UNK   900       8.544 -44.480 -95.361  1.00  0.00     0.297 C 
HETATM    6  C5  UNK   900       8.652 -42.237 -96.192  1.00  0.00     0.205 C 
ENDROOT
BRANCH   5   7
HETATM    7  O2  UNK   900       9.951 -44.649 -95.219  1.00  0.00    -0.315 OA
BRANCH   7   8
HETATM    8  C6  UNK   900      10.518 -45.677 -95.922  1.00  0.00     0.101 A 
HETATM    9  C7  UNK   900      11.387 -45.406 -96.975  1.00  0.00     0.100 A 
HETATM   10  N1  UNK   900      11.672 -44.132 -97.304  1.00  0.00    -0.250 NA
HETATM   11  C9  UNK   900      11.948 -46.498 -97.671  1.00  0.00    -0.004 A 
HETATM   12  C14 UNK   900      12.522 -43.912 -98.334  1.00  0.00     0.031 A 
HETATM   13  C15 UNK   900      13.119 -44.914 -99.072  1.00  0.00     0.027 A 
HETATM   14  C16 UNK   900      12.811 -42.487 -98.667  1.00  0.00     0.070 C 
HETATM   15  C13 UNK   900      12.823 -46.225 -98.731  1.00  0.00     0.016 A 
HETATM   16  C11 UNK   900      11.627 -47.815 -97.300  1.00  0.00     0.014 A 
HETATM   17  C12 UNK   900      10.755 -48.057 -96.243  1.00  0.00     0.004 A 
HETATM   18  C10 UNK   900      10.199 -46.987 -95.554  1.00  0.00     0.039 A 
ENDBRANCH   7   8
ENDBRANCH   5   7
BRANCH   3  19
HETATM   19  O5  UNK   900       6.522 -44.194 -94.113  1.00  0.00    -0.388 OA
HETATM   20  H8  UNK   900       6.293 -44.318 -95.049  1.00  0.00     0.210 HD
ENDBRANCH   3  19
BRANCH   2  21
HETATM   21  O4  UNK   900       9.626 -42.436 -93.331  1.00  0.00    -0.390 OA
HETATM   22  H7  UNK   900       9.880 -41.503 -93.430  1.00  0.00     0.210 HD
ENDBRANCH   2  21
BRANCH   4  23
HETATM   23  O3  UNK   900       6.628 -41.491 -95.162  1.00  0.00    -0.386 OA
HETATM   24  C8  UNK   900       6.315 -40.163 -95.558  1.00  0.00     0.202 C 
ENDBRANCH   4  23
TORSDOF 5
ENDMDL
MODEL 4
REMARK VINA RESULT:      -4.9     27.894     29.900
REMARK  5 active torsions:
REMARK  status: ('A' for Active; 'I' for Inactive)
REMARK    1  A    between atoms: O2_2  and  C4_10 
REMARK    2  A    between atoms: O2_2  and  C6_12 
REMARK    3  A    between atoms: O3_3  and  C3_9 
REMARK    4  A    between atoms: O4_4  and  C1_7 
REMARK    5  A    between atoms: O5_5  and  C2_8 
ROOT
HETATM    1  O1  UNK   900      16.067 -63.281 -72.613  1.00  0.00    -0.356 OA
HETATM    2  C1  UNK   900      17.583 -61.257 -74.007  1.00  0.00     0.182 C 
HETATM    3  C2  UNK   900      16.074 -61.437 -74.216  1.00  0.00     0.205 C 
HETATM    4  C3  UNK   900      18.233 -62.523 -73.444  1.00  0.00     0.176 C 
HETATM    5  C4  UNK   900      15.392 -62.083 -73.007  1.00  0.00     0.297 C 
HETATM    6  C5  UNK   900      17.439 -63.083 -72.268  1.00  0.00     0.205 C 
ENDROOT
BRANCH   5   7
HETATM    7  O2  UNK   900      15.298 -61.143 -71.942  1.00  0.00    -0.315 OA
BRANCH   7   8
HETATM    8  C6  UNK   900      14.264 -61.316 -71.062  1.00  0.00     0.101 A 
HETATM    9  C7  UNK   900      13.090 -60.583 -71.211  1.00  0.00     0.100 A 
HETATM   10  N1  UNK   900      12.968 -59.702 -72.221  1.00  0.00    -0.250 NA
HETATM   11  C9  UNK   900      12.052 -60.796 -70.279  1.00  0.00    -0.004 A 
HETATM   12  C14 UNK   900      11.810 -59.010 -72.331  1.00  0.00     0.031 A 
HETATM   13  C15 UNK   900      10.741 -59.150 -71.469  1.00  0.00     0.027 A 
HETATM   14  C16 UNK   900      11.715 -58.044 -73.463  1.00  0.00     0.070 C 
HETATM   15  C13 UNK   900      10.870 -60.059 -70.429  1.00  0.00     0.016 A 
HETATM   16  C11 UNK   900      12.214 -61.724 -69.236  1.00  0.00     0.014 A 
HETATM   17  C12 UNK   900      13.400 -62.443 -69.111  1.00  0.00     0.004 A 
HETATM   18  C10 UNK   900      14.426 -62.239 -70.025  1.00  0.00     0.039 A 
ENDBRANCH   7   8
ENDBRANCH   5   7
BRANCH   3  19
HETATM   19  O5  UNK   900      15.844 -62.272 -75.350  1.00  0.00    -0.388 OA
HETATM   20  H8  UNK   900      16.117 -63.175 -75.111  1.00  0.00     0.210 HD
ENDBRANCH   3  19
BRANCH   2  21
HETATM   21  O4  UNK   900      17.817 -60.192 -73.088  1.00  0.00    -0.390 OA
HETATM   22  H7  UNK   900      18.340 -60.548 -72.350  1.00  0.00     0.210 HD
ENDBRANCH   2  21
BRANCH   4  23
HETATM   23  O3  UNK   900      18.301 -63.529 -74.453  1.00  0.00    -0.386 OA
HETATM   24  C8  UNK   900      19.298 -63.229 -75.420  1.00  0.00     0.202 C 
ENDBRANCH   4  23
TORSDOF 5
ENDMDL
MODEL 5
REMARK VINA RESULT:      -4.9     33.638     35.542
REMARK  5 active torsions:
REMARK  status: ('A' for Active; 'I' for Inactive)
REMARK    1  A    between atoms: O2_2  and  C4_10 
REMARK    2  A    between atoms: O2_2  and  C6_12 
REMARK    3  A    between atoms: O3_3  and  C3_9 
REMARK    4  A    between atoms: O4_4  and  C1_7 
REMARK    5  A    between atoms: O5_5  and  C2_8 
ROOT
HETATM    1  O1  UNK   900      19.550 -65.328 -68.558  1.00  0.00    -0.356 OA
HETATM    2  C1  UNK   900      18.404 -65.296 -65.906  1.00  0.00     0.182 C 
HETATM    3  C2  UNK   900      18.549 -64.022 -66.750  1.00  0.00     0.205 C 
HETATM    4  C3  UNK   900      19.362 -66.396 -66.370  1.00  0.00     0.176 C 
HETATM    5  C4  UNK   900      18.581 -64.320 -68.252  1.00  0.00     0.297 C 
HETATM    6  C5  UNK   900      19.323 -66.568 -67.886  1.00  0.00     0.205 C 
ENDROOT
BRANCH   5   7
HETATM    7  O2  UNK   900      17.278 -64.669 -68.707  1.00  0.00    -0.315 OA
BRANCH   7   8
HETATM    8  C6  UNK   900      16.445 -63.634 -69.031  1.00  0.00     0.101 A 
HETATM    9  C7  UNK   900      15.239 -63.470 -68.354  1.00  0.00     0.100 A 
HETATM   10  N1  UNK   900      14.890 -64.331 -67.380  1.00  0.00    -0.250 NA
HETATM   11  C9  UNK   900      14.413 -62.387 -68.723  1.00  0.00    -0.004 A 
HETATM   12  C14 UNK   900      13.710 -64.136 -66.747  1.00  0.00     0.031 A 
HETATM   13  C15 UNK   900      12.836 -63.107 -67.037  1.00  0.00     0.027 A 
HETATM   14  C16 UNK   900      13.360 -65.112 -65.674  1.00  0.00     0.070 C 
HETATM   15  C13 UNK   900      13.199 -62.222 -68.042  1.00  0.00     0.016 A 
HETATM   16  C11 UNK   900      14.809 -61.509 -69.745  1.00  0.00     0.014 A 
HETATM   17  C12 UNK   900      16.020 -61.696 -70.405  1.00  0.00     0.004 A 
HETATM   18  C10 UNK   900      16.839 -62.760 -70.047  1.00  0.00     0.039 A 
ENDBRANCH   7   8
ENDBRANCH   5   7
BRANCH   3  19
HETATM   19  O5  UNK   900      19.763 -63.356 -66.407  1.00  0.00    -0.388 OA
HETATM   20  H8  UNK   900      19.593 -62.399 -66.440  1.00  0.00     0.210 HD
ENDBRANCH   3  19
BRANCH   2  21
HETATM   21  O4  UNK   900      17.072 -65.793 -66.012  1.00  0.00    -0.390 OA
HETATM   22  H7  UNK   900      16.643 -65.332 -66.753  1.00  0.00     0.210 HD
ENDBRANCH   2  21
BRANCH   4  23
HETATM   23  O3  UNK   900      20.699 -66.071 -65.995  1.00  0.00    -0.386 OA
HETATM   24  C8  UNK   900      20.927 -66.321 -64.615  1.00  0.00     0.202 C 
ENDBRANCH   4  23
TORSDOF 5
ENDMDL
MODEL 6
REMARK VINA RESULT:      -4.9      2.151      3.442
REMARK  5 active torsions:
REMARK  status: ('A' for Active; 'I' for Inactive)
REMARK    1  A    between atoms: O2_2  and  C4_10 
REMARK    2  A    between atoms: O2_2  and  C6_12 
REMARK    3  A    between atoms: O3_3  and  C3_9 
REMARK    4  A    between atoms: O4_4  and  C1_7 
REMARK    5  A    between atoms: O5_5  and  C2_8 
ROOT
HETATM    1  O1  UNK   900       9.276 -46.609 -94.673  1.00  0.00    -0.356 OA
HETATM    2  C1  UNK   900       9.988 -44.069 -95.851  1.00  0.00     0.182 C 
HETATM    3  C2  UNK   900      11.044 -45.056 -95.337  1.00  0.00     0.205 C 
HETATM    4  C3  UNK   900       8.618 -44.321 -95.216  1.00  0.00     0.176 C 
HETATM    5  C4  UNK   900      10.538 -46.502 -95.338  1.00  0.00     0.297 C 
HETATM    6  C5  UNK   900       8.250 -45.801 -95.252  1.00  0.00     0.205 C 
ENDROOT
BRANCH   5   7
HETATM    7  O2  UNK   900      10.488 -46.998 -96.672  1.00  0.00    -0.315 OA
BRANCH   7   8
HETATM    8  C6  UNK   900      11.191 -48.144 -96.926  1.00  0.00     0.101 A 
HETATM    9  C7  UNK   900      10.526 -49.363 -97.026  1.00  0.00     0.100 A 
HETATM   10  N1  UNK   900       9.190 -49.418 -96.873  1.00  0.00    -0.250 NA
HETATM   11  C9  UNK   900      11.293 -50.518 -97.290  1.00  0.00    -0.004 A 
HETATM   12  C14 UNK   900       8.582 -50.622 -96.978  1.00  0.00     0.031 A 
HETATM   13  C15 UNK   900       9.248 -51.805 -97.233  1.00  0.00     0.027 A 
HETATM   14  C16 UNK   900       7.101 -50.640 -96.800  1.00  0.00     0.070 C 
HETATM   15  C13 UNK   900      10.624 -51.745 -97.391  1.00  0.00     0.016 A 
HETATM   16  C11 UNK   900      12.687 -50.424 -97.444  1.00  0.00     0.014 A 
HETATM   17  C12 UNK   900      13.326 -49.191 -97.339  1.00  0.00     0.004 A 
HETATM   18  C10 UNK   900      12.577 -48.051 -97.080  1.00  0.00     0.039 A 
ENDBRANCH   7   8
ENDBRANCH   5   7
BRANCH   3  19
HETATM   19  O5  UNK   900      11.405 -44.718 -93.998  1.00  0.00    -0.388 OA
HETATM   20  H8  UNK   900      11.372 -43.749 -93.920  1.00  0.00     0.210 HD
ENDBRANCH   3  19
BRANCH   2  21
HETATM   21  O4  UNK   900       9.854 -44.202 -97.264  1.00  0.00    -0.390 OA
HETATM   22  H7  UNK   900       9.669 -43.320 -97.627  1.00  0.00     0.210 HD
ENDBRANCH   2  21
BRANCH   4  23
HETATM   23  O3  UNK   900       8.624 -43.899 -93.854  1.00  0.00    -0.386 OA
HETATM   24  C8  UNK   900       8.707 -42.484 -93.749  1.00  0.00     0.202 C 
ENDBRANCH   4  23
TORSDOF 5
ENDMDL
MODEL 7
REMARK VINA RESULT:      -4.8     56.322     58.167
REMARK  5 active torsions:
REMARK  status: ('A' for Active; 'I' for Inactive)
REMARK    1  A    between atoms: O2_2  and  C4_10 
REMARK    2  A    between atoms: O2_2  and  C6_12 
REMARK    3  A    between atoms: O3_3  and  C3_9 
REMARK    4  A    between atoms: O4_4  and  C1_7 
REMARK    5  A    between atoms: O5_5  and  C2_8 
ROOT
HETATM    1  O1  UNK   900      35.729 -66.875 -50.780  1.00  0.00    -0.356 OA
HETATM    2  C1  UNK   900      37.057 -64.366 -50.246  1.00  0.00     0.182 C 
HETATM    3  C2  UNK   900      35.564 -64.577 -49.964  1.00  0.00     0.205 C 
HETATM    4  C3  UNK   900      37.588 -65.371 -51.272  1.00  0.00     0.176 C 
HETATM    5  C4  UNK   900      35.219 -66.051 -49.728  1.00  0.00     0.297 C 
HETATM    6  C5  UNK   900      37.146 -66.793 -50.941  1.00  0.00     0.205 C 
ENDROOT
BRANCH   5   7
HETATM    7  O2  UNK   900      35.687 -66.461 -48.447  1.00  0.00    -0.315 OA
BRANCH   7   8
HETATM    8  C6  UNK   900      35.104 -67.576 -47.911  1.00  0.00     0.101 A 
HETATM    9  C7  UNK   900      34.125 -67.450 -46.929  1.00  0.00     0.100 A 
HETATM   10  N1  UNK   900      33.750 -66.228 -46.504  1.00  0.00    -0.250 NA
HETATM   11  C9  UNK   900      33.553 -68.628 -46.406  1.00  0.00    -0.004 A 
HETATM   12  C14 UNK   900      32.795 -66.149 -45.548  1.00  0.00     0.031 A 
HETATM   13  C15 UNK   900      32.179 -67.244 -44.978  1.00  0.00     0.027 A 
HETATM   14  C16 UNK   900      32.408 -64.778 -45.105  1.00  0.00     0.070 C 
HETATM   15  C13 UNK   900      32.568 -68.500 -45.417  1.00  0.00     0.016 A 
HETATM   16  C11 UNK   900      33.970 -69.887 -46.872  1.00  0.00     0.014 A 
HETATM   17  C12 UNK   900      34.950 -69.984 -47.856  1.00  0.00     0.004 A 
HETATM   18  C10 UNK   900      35.518 -68.828 -48.375  1.00  0.00     0.039 A 
ENDBRANCH   7   8
ENDBRANCH   5   7
BRANCH   3  19
HETATM   19  O5  UNK   900      34.796 -64.118 -51.076  1.00  0.00    -0.388 OA
HETATM   20  H8  UNK   900      34.448 -64.900 -51.537  1.00  0.00     0.210 HD
ENDBRANCH   3  19
BRANCH   2  21
HETATM   21  O4  UNK   900      37.801 -64.526 -49.041  1.00  0.00    -0.390 OA
HETATM   22  H7  UNK   900      38.572 -63.935 -49.089  1.00  0.00     0.210 HD
ENDBRANCH   2  21
BRANCH   4  23
HETATM   23  O3  UNK   900      37.102 -65.046 -52.573  1.00  0.00    -0.386 OA
HETATM   24  C8  UNK   900      38.151 -65.036 -53.531  1.00  0.00     0.202 C 
ENDBRANCH   4  23
TORSDOF 5
ENDMDL
MODEL 8
REMARK VINA RESULT:      -4.7      3.622      6.004
REMARK  5 active torsions:
REMARK  status: ('A' for Active; 'I' for Inactive)
REMARK    1  A    between atoms: O2_2  and  C4_10 
REMARK    2  A    between atoms: O2_2  and  C6_12 
REMARK    3  A    between atoms: O3_3  and  C3_9 
REMARK    4  A    between atoms: O4_4  and  C1_7 
REMARK    5  A    between atoms: O5_5  and  C2_8 
ROOT
HETATM    1  O1  UNK   900       6.672 -47.603 -97.468  1.00  0.00    -0.356 OA
HETATM    2  C1  UNK   900       5.099 -49.325 -95.763  1.00  0.00     0.182 C 
HETATM    3  C2  UNK   900       6.394 -49.800 -96.434  1.00  0.00     0.205 C 
HETATM    4  C3  UNK   900       4.497 -48.116 -96.484  1.00  0.00     0.176 C 
HETATM    5  C4  UNK   900       7.345 -48.642 -96.751  1.00  0.00     0.297 C 
HETATM    6  C5  UNK   900       5.553 -47.053 -96.770  1.00  0.00     0.205 C 
ENDROOT
BRANCH   5   7
HETATM    7  O2  UNK   900       7.948 -48.166 -95.552  1.00  0.00    -0.315 OA
BRANCH   7   8
HETATM    8  C6  UNK   900       9.084 -47.417 -95.693  1.00  0.00     0.101 A 
HETATM    9  C7  UNK   900       9.107 -46.094 -95.260  1.00  0.00     0.100 A 
HETATM   10  N1  UNK   900       8.010 -45.548 -94.701  1.00  0.00    -0.250 NA
HETATM   11  C9  UNK   900      10.301 -45.361 -95.426  1.00  0.00    -0.004 A 
HETATM   12  C14 UNK   900       8.074 -44.260 -94.292  1.00  0.00     0.031 A 
HETATM   13  C15 UNK   900       9.196 -43.465 -94.413  1.00  0.00     0.027 A 
HETATM   14  C16 UNK   900       6.838 -43.693 -93.679  1.00  0.00     0.070 C 
HETATM   15  C13 UNK   900      10.324 -44.030 -94.990  1.00  0.00     0.016 A 
HETATM   16  C11 UNK   900      11.426 -45.963 -96.015  1.00  0.00     0.014 A 
HETATM   17  C12 UNK   900      11.376 -47.288 -96.439  1.00  0.00     0.004 A 
HETATM   18  C10 UNK   900      10.203 -48.015 -96.278  1.00  0.00     0.039 A 
ENDBRANCH   7   8
ENDBRANCH   5   7
BRANCH   3  19
HETATM   19  O5  UNK   900       6.084 -50.462 -97.659  1.00  0.00    -0.388 OA
HETATM   20  H8  UNK   900       6.278 -51.408 -97.541  1.00  0.00     0.210 HD
ENDBRANCH   3  19
BRANCH   2  21
HETATM   21  O4  UNK   900       5.367 -48.948 -94.414  1.00  0.00    -0.390 OA
HETATM   22  H7  UNK   900       5.926 -49.640 -94.021  1.00  0.00     0.210 HD
ENDBRANCH   2  21
BRANCH   4  23
HETATM   23  O3  UNK   900       3.928 -48.521 -97.728  1.00  0.00    -0.386 OA
HETATM   24  C8  UNK   900       2.696 -49.203 -97.537  1.00  0.00     0.202 C 
ENDBRANCH   4  23
TORSDOF 5
ENDMDL
MODEL 9
REMARK VINA RESULT:      -4.7     19.440     21.243
REMARK  5 active torsions:
REMARK  status: ('A' for Active; 'I' for Inactive)
REMARK    1  A    between atoms: O2_2  and  C4_10 
REMARK    2  A    between atoms: O2_2  and  C6_12 
REMARK    3  A    between atoms: O3_3  and  C3_9 
REMARK    4  A    between atoms: O4_4  and  C1_7 
REMARK    5  A    between atoms: O5_5  and  C2_8 
ROOT
HETATM    1  O1  UNK   900      10.476 -57.557 -78.440  1.00  0.00    -0.356 OA
HETATM    2  C1  UNK   900      12.857 -56.608 -79.772  1.00  0.00     0.182 C 
HETATM    3  C2  UNK   900      11.527 -56.798 -80.512  1.00  0.00     0.205 C 
HETATM    4  C3  UNK   900      12.914 -57.436 -78.486  1.00  0.00     0.176 C 
HETATM    5  C4  UNK   900      10.320 -56.700 -79.574  1.00  0.00     0.297 C 
HETATM    6  C5  UNK   900      11.641 -57.276 -77.662  1.00  0.00     0.205 C 
ENDROOT
BRANCH   5   7
HETATM    7  O2  UNK   900      10.105 -55.344 -79.199  1.00  0.00    -0.315 OA
BRANCH   7   8
HETATM    8  C6  UNK   900       8.877 -54.815 -79.490  1.00  0.00     0.101 A 
HETATM    9  C7  UNK   900       8.330 -53.828 -78.675  1.00  0.00     0.100 A 
HETATM   10  N1  UNK   900       9.008 -53.392 -77.597  1.00  0.00    -0.250 NA
HETATM   11  C9  UNK   900       7.061 -53.314 -79.015  1.00  0.00    -0.004 A 
HETATM   12  C14 UNK   900       8.442 -52.431 -76.830  1.00  0.00     0.031 A 
HETATM   13  C15 UNK   900       7.207 -51.868 -77.083  1.00  0.00     0.027 A 
HETATM   14  C16 UNK   900       9.225 -51.976 -75.645  1.00  0.00     0.070 C 
HETATM   15  C13 UNK   900       6.511 -52.320 -78.193  1.00  0.00     0.016 A 
HETATM   16  C11 UNK   900       6.381 -53.794 -80.147  1.00  0.00     0.014 A 
HETATM   17  C12 UNK   900       6.952 -54.781 -80.945  1.00  0.00     0.004 A 
HETATM   18  C10 UNK   900       8.201 -55.292 -80.617  1.00  0.00     0.039 A 
ENDBRANCH   7   8
ENDBRANCH   5   7
BRANCH   3  19
HETATM   19  O5  UNK   900      11.502 -58.085 -81.129  1.00  0.00    -0.388 OA
HETATM   20  H8  UNK   900      11.181 -57.969 -82.039  1.00  0.00     0.210 HD
ENDBRANCH   3  19
BRANCH   2  21
HETATM   21  O4  UNK   900      13.021 -55.235 -79.424  1.00  0.00    -0.390 OA
HETATM   22  H7  UNK   900      12.185 -54.928 -79.034  1.00  0.00     0.210 HD
ENDBRANCH   2  21
BRANCH   4  23
HETATM   23  O3  UNK   900      13.069 -58.819 -78.799  1.00  0.00    -0.386 OA
HETATM   24  C8  UNK   900      14.390 -59.108 -79.234  1.00  0.00     0.202 C 
ENDBRANCH   4  23
TORSDOF 5
ENDMDL
