MODEL 1
REMARK VINA RESULT:      -7.3      0.000      0.000
REMARK  2 active torsions:
REMARK  status: ('A' for Active; 'I' for Inactive)
REMARK    1  A    between atoms: O2_2  and  C8_12 
REMARK    2  A    between atoms: O4_4  and  C11_15 
ROOT
HETATM    1  O1  UNK   900      35.412 -49.944 -61.521  1.00  0.00    -0.346 OA
HETATM    2  O3  UNK   900      31.773 -50.619 -59.338  1.00  0.00    -0.286 OA
HETATM    3  C1  UNK   900      33.672 -48.357 -61.237  1.00  0.00    -0.017 A 
HETATM    4  C2  UNK   900      32.996 -48.810 -60.101  1.00  0.00     0.057 A 
HETATM    5  C3  UNK   900      34.307 -49.331 -62.176  1.00  0.00     0.215 C 
HETATM    6  C4  UNK   900      33.935 -51.251 -60.024  1.00  0.00     0.081 A 
HETATM    7  C5  UNK   900      32.848 -50.251 -59.810  1.00  0.00     0.201 C 
HETATM    8  C6  UNK   900      33.756 -46.979 -61.478  1.00  0.00     0.017 A 
HETATM    9  C7  UNK   900      35.097 -51.051 -60.782  1.00  0.00     0.086 A 
HETATM   10  C8  UNK   900      32.392 -47.894 -59.230  1.00  0.00     0.081 A 
HETATM   11  C9  UNK   900      33.163 -46.067 -60.604  1.00  0.00    -0.059 A 
HETATM   12  C10 UNK   900      32.481 -46.525 -59.481  1.00  0.00     0.044 A 
HETATM   13  C11 UNK   900      33.780 -52.478 -59.349  1.00  0.00     0.082 A 
HETATM   14  C12 UNK   900      36.092 -52.041 -60.812  1.00  0.00     0.038 A 
HETATM   15  C13 UNK   900      33.261 -44.604 -60.874  1.00  0.00     0.048 C 
HETATM   16  C14 UNK   900      34.763 -53.466 -59.408  1.00  0.00     0.037 A 
HETATM   17  C15 UNK   900      35.925 -53.245 -60.134  1.00  0.00     0.005 A 
ENDROOT
BRANCH  10  18
HETATM   18  O2  UNK   900      31.736 -48.290 -58.100  1.00  0.00    -0.360 OA
HETATM   19  H11 UNK   900      32.200 -47.973 -57.310  1.00  0.00     0.217 HD
ENDBRANCH  10  18
BRANCH  13  20
HETATM   20  O4  UNK   900      32.695 -52.768 -58.568  1.00  0.00    -0.360 OA
HETATM   21  H12 UNK   900      32.019 -52.078 -58.655  1.00  0.00     0.217 HD
ENDBRANCH  13  20
TORSDOF 2
ENDMDL
MODEL 2
REMARK VINA RESULT:      -7.2     11.908     13.877
REMARK  2 active torsions:
REMARK  status: ('A' for Active; 'I' for Inactive)
REMARK    1  A    between atoms: O2_2  and  C8_12 
REMARK    2  A    between atoms: O4_4  and  C11_15 
ROOT
HETATM    1  O1  UNK   900      36.168 -37.854 -57.843  1.00  0.00    -0.346 OA
HETATM    2  O3  UNK   900      32.395 -35.800 -57.751  1.00  0.00    -0.286 OA
HETATM    3  C1  UNK   900      35.626 -35.930 -59.118  1.00  0.00    -0.017 A 
HETATM    4  C2  UNK   900      34.566 -35.355 -58.412  1.00  0.00     0.057 A 
HETATM    5  C3  UNK   900      35.798 -37.414 -59.145  1.00  0.00     0.215 C 
HETATM    6  C4  UNK   900      33.906 -37.412 -56.937  1.00  0.00     0.081 A 
HETATM    7  C5  UNK   900      33.564 -36.182 -57.709  1.00  0.00     0.201 C 
HETATM    8  C6  UNK   900      36.530 -35.096 -59.792  1.00  0.00     0.017 A 
HETATM    9  C7  UNK   900      35.117 -38.115 -57.008  1.00  0.00     0.086 A 
HETATM   10  C8  UNK   900      34.401 -33.963 -58.401  1.00  0.00     0.081 A 
HETATM   11  C9  UNK   900      36.371 -33.711 -59.771  1.00  0.00    -0.059 A 
HETATM   12  C10 UNK   900      35.306 -33.144 -59.075  1.00  0.00     0.044 A 
HETATM   13  C11 UNK   900      32.929 -37.854 -56.024  1.00  0.00     0.082 A 
HETATM   14  C12 UNK   900      35.349 -39.199 -56.145  1.00  0.00     0.038 A 
HETATM   15  C13 UNK   900      37.341 -32.837 -60.491  1.00  0.00     0.048 C 
HETATM   16  C14 UNK   900      33.159 -38.949 -55.189  1.00  0.00     0.037 A 
HETATM   17  C15 UNK   900      34.374 -39.617 -55.244  1.00  0.00     0.005 A 
ENDROOT
BRANCH  10  18
HETATM   18  O2  UNK   900      33.391 -33.358 -57.711  1.00  0.00    -0.360 OA
HETATM   19  H11 UNK   900      33.175 -32.500 -58.110  1.00  0.00     0.217 HD
ENDBRANCH  10  18
BRANCH  13  20
HETATM   20  O4  UNK   900      31.723 -37.229 -55.862  1.00  0.00    -0.360 OA
HETATM   21  H12 UNK   900      31.791 -36.291 -56.098  1.00  0.00     0.217 HD
ENDBRANCH  13  20
TORSDOF 2
ENDMDL
MODEL 3
REMARK VINA RESULT:      -7.1     10.456     13.462
REMARK  2 active torsions:
REMARK  status: ('A' for Active; 'I' for Inactive)
REMARK    1  A    between atoms: O2_2  and  C8_12 
REMARK    2  A    between atoms: O4_4  and  C11_15 
ROOT
HETATM    1  O1  UNK   900      37.508 -37.521 -57.742  1.00  0.00    -0.346 OA
HETATM    2  O3  UNK   900      33.763 -36.898 -55.729  1.00  0.00    -0.286 OA
HETATM    3  C1  UNK   900      36.709 -38.798 -55.910  1.00  0.00    -0.017 A 
HETATM    4  C2  UNK   900      35.329 -38.587 -55.939  1.00  0.00     0.057 A 
HETATM    5  C3  UNK   900      37.647 -37.717 -56.339  1.00  0.00     0.215 C 
HETATM    6  C4  UNK   900      35.279 -36.474 -57.480  1.00  0.00     0.081 A 
HETATM    7  C5  UNK   900      34.750 -37.291 -56.348  1.00  0.00     0.201 C 
HETATM    8  C6  UNK   900      37.202 -40.040 -55.484  1.00  0.00     0.017 A 
HETATM    9  C7  UNK   900      36.525 -36.641 -58.101  1.00  0.00     0.086 A 
HETATM   10  C8  UNK   900      34.453 -39.600 -55.524  1.00  0.00     0.081 A 
HETATM   11  C9  UNK   900      36.329 -41.050 -55.081  1.00  0.00    -0.059 A 
HETATM   12  C10 UNK   900      34.955 -40.830 -55.101  1.00  0.00     0.044 A 
HETATM   13  C11 UNK   900      34.407 -35.490 -57.985  1.00  0.00     0.082 A 
HETATM   14  C12 UNK   900      36.854 -35.870 -59.229  1.00  0.00     0.038 A 
HETATM   15  C13 UNK   900      36.868 -42.366 -54.631  1.00  0.00     0.048 C 
HETATM   16  C14 UNK   900      34.754 -34.710 -59.089  1.00  0.00     0.037 A 
HETATM   17  C15 UNK   900      35.976 -34.906 -59.718  1.00  0.00     0.005 A 
ENDROOT
BRANCH  10  18
HETATM   18  O2  UNK   900      33.097 -39.444 -55.551  1.00  0.00    -0.360 OA
HETATM   19  H11 UNK   900      32.862 -38.584 -55.933  1.00  0.00     0.217 HD
ENDBRANCH  10  18
BRANCH  13  20
HETATM   20  O4  UNK   900      33.162 -35.258 -57.465  1.00  0.00    -0.360 OA
HETATM   21  H12 UNK   900      33.106 -35.591 -56.556  1.00  0.00     0.217 HD
ENDBRANCH  13  20
TORSDOF 2
ENDMDL
MODEL 4
REMARK VINA RESULT:      -6.7      4.739      6.288
REMARK  2 active torsions:
REMARK  status: ('A' for Active; 'I' for Inactive)
REMARK    1  A    between atoms: O2_2  and  C8_12 
REMARK    2  A    between atoms: O4_4  and  C11_15 
ROOT
HETATM    1  O1  UNK   900      32.312 -45.568 -62.234  1.00  0.00    -0.346 OA
HETATM    2  O3  UNK   900      29.525 -48.137 -64.257  1.00  0.00    -0.286 OA
HETATM    3  C1  UNK   900      31.648 -45.351 -64.499  1.00  0.00    -0.017 A 
HETATM    4  C2  UNK   900      30.426 -46.027 -64.550  1.00  0.00     0.057 A 
HETATM    5  C3  UNK   900      32.727 -45.811 -63.574  1.00  0.00     0.215 C 
HETATM    6  C4  UNK   900      30.623 -47.377 -62.318  1.00  0.00     0.081 A 
HETATM    7  C5  UNK   900      30.171 -47.231 -63.733  1.00  0.00     0.201 C 
HETATM    8  C6  UNK   900      31.843 -44.232 -65.321  1.00  0.00     0.017 A 
HETATM    9  C7  UNK   900      31.574 -46.573 -61.673  1.00  0.00     0.086 A 
HETATM   10  C8  UNK   900      29.421 -45.601 -65.429  1.00  0.00     0.081 A 
HETATM   11  C9  UNK   900      30.839 -43.802 -66.187  1.00  0.00    -0.059 A 
HETATM   12  C10 UNK   900      29.628 -44.486 -66.242  1.00  0.00     0.044 A 
HETATM   13  C11 UNK   900      29.982 -48.384 -61.571  1.00  0.00     0.082 A 
HETATM   14  C12 UNK   900      31.828 -46.752 -60.303  1.00  0.00     0.038 A 
HETATM   15  C13 UNK   900      31.062 -42.608 -67.054  1.00  0.00     0.048 C 
HETATM   16  C14 UNK   900      30.262 -48.572 -60.216  1.00  0.00     0.037 A 
HETATM   17  C15 UNK   900      31.180 -47.749 -59.579  1.00  0.00     0.005 A 
ENDROOT
BRANCH  10  18
HETATM   18  O2  UNK   900      28.207 -46.220 -65.500  1.00  0.00    -0.360 OA
HETATM   19  H11 UNK   900      28.056 -46.762 -64.710  1.00  0.00     0.217 HD
ENDBRANCH  10  18
BRANCH  13  20
HETATM   20  O4  UNK   900      29.026 -49.210 -62.097  1.00  0.00    -0.360 OA
HETATM   21  H12 UNK   900      28.990 -50.045 -61.606  1.00  0.00     0.217 HD
ENDBRANCH  13  20
TORSDOF 2
ENDMDL
MODEL 5
REMARK VINA RESULT:      -6.6      3.729      5.456
REMARK  2 active torsions:
REMARK  status: ('A' for Active; 'I' for Inactive)
REMARK    1  A    between atoms: O2_2  and  C8_12 
REMARK    2  A    between atoms: O4_4  and  C11_15 
ROOT
HETATM    1  O1  UNK   900      30.671 -48.217 -63.148  1.00  0.00    -0.346 OA
HETATM    2  O3  UNK   900      31.502 -44.879 -60.573  1.00  0.00    -0.286 OA
HETATM    3  C1  UNK   900      30.619 -45.939 -63.802  1.00  0.00    -0.017 A 
HETATM    4  C2  UNK   900      31.415 -45.303 -62.845  1.00  0.00     0.057 A 
HETATM    5  C3  UNK   900      29.797 -47.130 -63.429  1.00  0.00     0.215 C 
HETATM    6  C4  UNK   900      31.440 -47.188 -61.031  1.00  0.00     0.081 A 
HETATM    7  C5  UNK   900      31.443 -45.752 -61.438  1.00  0.00     0.201 C 
HETATM    8  C6  UNK   900      30.609 -45.450 -65.116  1.00  0.00     0.017 A 
HETATM    9  C7  UNK   900      31.115 -48.274 -61.855  1.00  0.00     0.086 A 
HETATM   10  C8  UNK   900      32.174 -44.179 -63.196  1.00  0.00     0.081 A 
HETATM   11  C9  UNK   900      31.374 -44.337 -65.466  1.00  0.00    -0.059 A 
HETATM   12  C10 UNK   900      32.156 -43.702 -64.506  1.00  0.00     0.044 A 
HETATM   13  C11 UNK   900      31.856 -47.451 -59.711  1.00  0.00     0.082 A 
HETATM   14  C12 UNK   900      31.257 -49.586 -61.373  1.00  0.00     0.038 A 
HETATM   15  C13 UNK   900      31.354 -43.830 -66.869  1.00  0.00     0.048 C 
HETATM   16  C14 UNK   900      31.968 -48.758 -59.234  1.00  0.00     0.037 A 
HETATM   17  C15 UNK   900      31.676 -49.827 -60.068  1.00  0.00     0.005 A 
ENDROOT
BRANCH  10  18
HETATM   18  O2  UNK   900      32.979 -43.537 -62.299  1.00  0.00    -0.360 OA
HETATM   19  H11 UNK   900      32.461 -42.915 -61.764  1.00  0.00     0.217 HD
ENDBRANCH  10  18
BRANCH  13  20
HETATM   20  O4  UNK   900      32.215 -46.467 -58.831  1.00  0.00    -0.360 OA
HETATM   21  H12 UNK   900      32.931 -46.771 -58.254  1.00  0.00     0.217 HD
ENDBRANCH  13  20
TORSDOF 2
ENDMDL
MODEL 6
REMARK VINA RESULT:      -6.4      2.194      5.424
REMARK  2 active torsions:
REMARK  status: ('A' for Active; 'I' for Inactive)
REMARK    1  A    between atoms: O2_2  and  C8_12 
REMARK    2  A    between atoms: O4_4  and  C11_15 
ROOT
HETATM    1  O1  UNK   900      35.063 -48.291 -61.294  1.00  0.00    -0.346 OA
HETATM    2  O3  UNK   900      31.857 -46.539 -59.032  1.00  0.00    -0.286 OA
HETATM    3  C1  UNK   900      33.572 -49.482 -59.885  1.00  0.00    -0.017 A 
HETATM    4  C2  UNK   900      32.462 -48.638 -59.793  1.00  0.00     0.057 A 
HETATM    5  C3  UNK   900      34.946 -48.909 -60.017  1.00  0.00     0.215 C 
HETATM    6  C4  UNK   900      33.569 -46.426 -60.643  1.00  0.00     0.081 A 
HETATM    7  C5  UNK   900      32.605 -47.167 -59.780  1.00  0.00     0.201 C 
HETATM    8  C6  UNK   900      33.379 -50.870 -59.863  1.00  0.00     0.017 A 
HETATM    9  C7  UNK   900      34.650 -46.988 -61.338  1.00  0.00     0.086 A 
HETATM   10  C8  UNK   900      31.176 -49.179 -59.657  1.00  0.00     0.081 A 
HETATM   11  C9  UNK   900      32.098 -51.407 -59.738  1.00  0.00    -0.059 A 
HETATM   12  C10 UNK   900      30.997 -50.562 -59.635  1.00  0.00     0.044 A 
HETATM   13  C11 UNK   900      33.318 -45.049 -60.800  1.00  0.00     0.082 A 
HETATM   14  C12 UNK   900      35.418 -46.190 -62.203  1.00  0.00     0.038 A 
HETATM   15  C13 UNK   900      31.907 -52.886 -59.716  1.00  0.00     0.048 C 
HETATM   16  C14 UNK   900      34.104 -44.259 -61.641  1.00  0.00     0.037 A 
HETATM   17  C15 UNK   900      35.150 -44.832 -62.350  1.00  0.00     0.005 A 
ENDROOT
BRANCH  10  18
HETATM   18  O2  UNK   900      30.063 -48.394 -59.580  1.00  0.00    -0.360 OA
HETATM   19  H11 UNK   900      29.270 -48.907 -59.803  1.00  0.00     0.217 HD
ENDBRANCH  10  18
BRANCH  13  20
HETATM   20  O4  UNK   900      32.280 -44.405 -60.184  1.00  0.00    -0.360 OA
HETATM   21  H12 UNK   900      32.385 -44.435 -59.221  1.00  0.00     0.217 HD
ENDBRANCH  13  20
TORSDOF 2
ENDMDL
MODEL 7
REMARK VINA RESULT:      -6.2      3.074      5.774
REMARK  2 active torsions:
REMARK  status: ('A' for Active; 'I' for Inactive)
REMARK    1  A    between atoms: O2_2  and  C8_12 
REMARK    2  A    between atoms: O4_4  and  C11_15 
ROOT
HETATM    1  O1  UNK   900      33.977 -49.050 -63.460  1.00  0.00    -0.346 OA
HETATM    2  O3  UNK   900      30.686 -46.963 -61.651  1.00  0.00    -0.286 OA
HETATM    3  C1  UNK   900      33.015 -49.574 -61.357  1.00  0.00    -0.017 A 
HETATM    4  C2  UNK   900      31.739 -49.011 -61.430  1.00  0.00     0.057 A 
HETATM    5  C3  UNK   900      34.167 -48.925 -62.055  1.00  0.00     0.215 C 
HETATM    6  C4  UNK   900      32.123 -47.409 -63.461  1.00  0.00     0.081 A 
HETATM    7  C5  UNK   900      31.488 -47.748 -62.155  1.00  0.00     0.201 C 
HETATM    8  C6  UNK   900      33.200 -50.758 -60.629  1.00  0.00     0.017 A 
HETATM    9  C7  UNK   900      33.232 -48.053 -64.027  1.00  0.00     0.086 A 
HETATM   10  C8  UNK   900      30.664 -49.615 -60.763  1.00  0.00     0.081 A 
HETATM   11  C9  UNK   900      32.127 -51.364 -59.975  1.00  0.00    -0.059 A 
HETATM   12  C10 UNK   900      30.860 -50.792 -60.041  1.00  0.00     0.044 A 
HETATM   13  C11 UNK   900      31.501 -46.380 -64.196  1.00  0.00     0.082 A 
HETATM   14  C12 UNK   900      33.664 -47.702 -65.317  1.00  0.00     0.038 A 
HETATM   15  C13 UNK   900      32.339 -52.624 -59.205  1.00  0.00     0.048 C 
HETATM   16  C14 UNK   900      31.955 -46.020 -65.466  1.00  0.00     0.037 A 
HETATM   17  C15 UNK   900      33.033 -46.687 -66.031  1.00  0.00     0.005 A 
ENDROOT
BRANCH  10  18
HETATM   18  O2  UNK   900      29.397 -49.110 -60.820  1.00  0.00    -0.360 OA
HETATM   19  H11 UNK   900      28.807 -49.726 -61.282  1.00  0.00     0.217 HD
ENDBRANCH  10  18
BRANCH  13  20
HETATM   20  O4  UNK   900      30.402 -45.701 -63.746  1.00  0.00    -0.360 OA
HETATM   21  H12 UNK   900      30.573 -44.747 -63.738  1.00  0.00     0.217 HD
ENDBRANCH  13  20
TORSDOF 2
ENDMDL
MODEL 8
REMARK VINA RESULT:      -6.1     22.583     25.360
REMARK  2 active torsions:
REMARK  status: ('A' for Active; 'I' for Inactive)
REMARK    1  A    between atoms: O2_2  and  C8_12 
REMARK    2  A    between atoms: O4_4  and  C11_15 
ROOT
HETATM    1  O1  UNK   900      25.820 -28.985 -51.782  1.00  0.00    -0.346 OA
HETATM    2  O3  UNK   900      22.145 -27.448 -50.170  1.00  0.00    -0.286 OA
HETATM    3  C1  UNK   900      24.455 -30.092 -50.191  1.00  0.00    -0.017 A 
HETATM    4  C2  UNK   900      23.202 -29.497 -50.360  1.00  0.00     0.057 A 
HETATM    5  C3  UNK   900      25.703 -29.297 -50.398  1.00  0.00     0.215 C 
HETATM    6  C4  UNK   900      23.948 -27.366 -51.681  1.00  0.00     0.081 A 
HETATM    7  C5  UNK   900      23.064 -28.067 -50.705  1.00  0.00     0.201 C 
HETATM    8  C6  UNK   900      24.525 -31.447 -49.833  1.00  0.00     0.017 A 
HETATM    9  C7  UNK   900      25.175 -27.841 -52.166  1.00  0.00     0.086 A 
HETATM   10  C8  UNK   900      22.034 -30.243 -50.151  1.00  0.00     0.081 A 
HETATM   11  C9  UNK   900      23.361 -32.191 -49.637  1.00  0.00    -0.059 A 
HETATM   12  C10 UNK   900      22.116 -31.588 -49.795  1.00  0.00     0.044 A 
HETATM   13  C11 UNK   900      23.458 -26.145 -52.185  1.00  0.00     0.082 A 
HETATM   14  C12 UNK   900      25.856 -27.128 -53.166  1.00  0.00     0.038 A 
HETATM   15  C13 UNK   900      23.452 -33.630 -49.258  1.00  0.00     0.048 C 
HETATM   16  C14 UNK   900      24.156 -25.431 -53.160  1.00  0.00     0.037 A 
HETATM   17  C15 UNK   900      25.353 -25.926 -53.657  1.00  0.00     0.005 A 
ENDROOT
BRANCH  10  18
HETATM   18  O2  UNK   900      20.790 -29.707 -50.321  1.00  0.00    -0.360 OA
HETATM   19  H11 UNK   900      20.713 -28.870 -49.838  1.00  0.00     0.217 HD
ENDBRANCH  10  18
BRANCH  13  20
HETATM   20  O4  UNK   900      22.264 -25.603 -51.795  1.00  0.00    -0.360 OA
HETATM   21  H12 UNK   900      22.073 -24.801 -52.305  1.00  0.00     0.217 HD
ENDBRANCH  13  20
TORSDOF 2
ENDMDL
MODEL 9
REMARK VINA RESULT:      -6.0     34.406     36.375
REMARK  2 active torsions:
REMARK  status: ('A' for Active; 'I' for Inactive)
REMARK    1  A    between atoms: O2_2  and  C8_12 
REMARK    2  A    between atoms: O4_4  and  C11_15 
ROOT
HETATM    1  O1  UNK   900      24.928 -41.177 -96.164  1.00  0.00    -0.346 OA
HETATM    2  O3  UNK   900      28.022 -41.016 -93.186  1.00  0.00    -0.286 OA
HETATM    3  C1  UNK   900      26.043 -43.057 -95.247  1.00  0.00    -0.017 A 
HETATM    4  C2  UNK   900      26.545 -42.583 -94.033  1.00  0.00     0.057 A 
HETATM    5  C3  UNK   900      25.936 -42.147 -96.427  1.00  0.00     0.215 C 
HETATM    6  C4  UNK   900      26.335 -40.016 -94.489  1.00  0.00     0.081 A 
HETATM    7  C5  UNK   900      27.022 -41.193 -93.881  1.00  0.00     0.201 C 
HETATM    8  C6  UNK   900      25.634 -44.395 -95.341  1.00  0.00     0.017 A 
HETATM    9  C7  UNK   900      25.365 -40.063 -95.500  1.00  0.00     0.086 A 
HETATM   10  C8  UNK   900      26.657 -43.444 -92.933  1.00  0.00     0.081 A 
HETATM   11  C9  UNK   900      25.735 -45.248 -94.243  1.00  0.00    -0.059 A 
HETATM   12  C10 UNK   900      26.247 -44.773 -93.039  1.00  0.00     0.044 A 
HETATM   13  C11 UNK   900      26.671 -38.761 -93.944  1.00  0.00     0.082 A 
HETATM   14  C12 UNK   900      24.720 -38.884 -95.908  1.00  0.00     0.038 A 
HETATM   15  C13 UNK   900      25.295 -46.669 -94.358  1.00  0.00     0.048 C 
HETATM   16  C14 UNK   900      26.043 -37.592 -94.375  1.00  0.00     0.037 A 
HETATM   17  C15 UNK   900      25.061 -37.653 -95.353  1.00  0.00     0.005 A 
ENDROOT
BRANCH  10  18
HETATM   18  O2  UNK   900      27.125 -43.020 -91.723  1.00  0.00    -0.360 OA
HETATM   19  H11 UNK   900      27.245 -43.773 -91.123  1.00  0.00     0.217 HD
ENDBRANCH  10  18
BRANCH  13  20
HETATM   20  O4  UNK   900      27.589 -38.605 -92.941  1.00  0.00    -0.360 OA
HETATM   21  H12 UNK   900      27.445 -37.767 -92.476  1.00  0.00     0.217 HD
ENDBRANCH  13  20
TORSDOF 2
ENDMDL
