MODEL 1
REMARK VINA RESULT:      -7.9      0.000      0.000
REMARK  8 active torsions:
REMARK  status: ('A' for Active; 'I' for Inactive)
REMARK    1  A    between atoms: O3_3  and  C7_15 
REMARK    2  A    between atoms: O6_6  and  C18_26 
REMARK    3  A    between atoms: N1_8  and  C1_9 
REMARK       I    between atoms: N1_8  and  C9_17 
REMARK    4  A    between atoms: C1_9  and  C2_10 
REMARK    5  A    between atoms: C1_9  and  C3_11 
REMARK    6  A    between atoms: C3_11  and  C5_13 
REMARK    7  A    between atoms: C6_14  and  C7_15 
REMARK    8  A    between atoms: C7_15  and  C9_17 
ROOT
HETATM    1  C1  UNK   900      30.469 -45.876 -64.940  1.00  0.00     0.114 C 
ENDROOT
BRANCH   1   2
HETATM    2  N1  UNK   900      31.538 -45.044 -65.440  1.00  0.00    -0.352 N 
HETATM    3  C9  UNK   900      31.313 -43.820 -66.050  1.00  0.00     0.249 C 
HETATM    4  O4  UNK   900      30.208 -43.313 -66.229  1.00  0.00    -0.271 OA
HETATM    5  H8  UNK   900      32.491 -45.385 -65.341  1.00  0.00     0.163 HD
BRANCH   3   6
HETATM    6  C7  UNK   900      32.605 -43.131 -66.466  1.00  0.00     0.239 C 
BRANCH   6   7
HETATM    7  O3  UNK   900      32.295 -41.912 -67.120  1.00  0.00    -0.384 OA
HETATM    8  H22 UNK   900      31.642 -42.100 -67.815  1.00  0.00     0.210 HD
ENDBRANCH   6   7
BRANCH   6   9
HETATM    9  C6  UNK   900      33.470 -42.814 -65.259  1.00  0.00     0.170 C 
HETATM   10  O2  UNK   900      34.105 -44.011 -64.788  1.00  0.00    -0.313 OA
HETATM   11  C17 UNK   900      35.348 -43.702 -64.304  1.00  0.00     0.259 C 
HETATM   12  O7  UNK   900      36.098 -44.497 -63.759  1.00  0.00    -0.265 OA
HETATM   13  C14 UNK   900      35.626 -42.243 -64.512  1.00  0.00     0.114 C 
HETATM   14  C10 UNK   900      34.615 -41.878 -65.574  1.00  0.00     0.045 C 
ENDBRANCH   6   9
ENDBRANCH   3   6
ENDBRANCH   1   2
BRANCH   1  15
HETATM   15  C2  UNK   900      30.877 -46.496 -63.610  1.00  0.00     0.159 C 
HETATM   16  O1  UNK   900      31.193 -45.416 -62.703  1.00  0.00    -0.309 OA
HETATM   17  C15 UNK   900      31.418 -45.664 -61.385  1.00  0.00     0.297 C 
HETATM   18  O5  UNK   900      31.898 -44.825 -60.634  1.00  0.00    -0.259 OA
HETATM   19  C13 UNK   900      31.020 -47.005 -60.895  1.00  0.00     0.079 A 
HETATM   20  C8  UNK   900      30.205 -47.829 -61.681  1.00  0.00    -0.037 A 
HETATM   21  C18 UNK   900      31.429 -47.424 -59.625  1.00  0.00     0.082 A 
HETATM   22  C4  UNK   900      29.759 -47.349 -63.030  1.00  0.00     0.074 C 
HETATM   23  C16 UNK   900      29.790 -49.068 -61.181  1.00  0.00     0.008 A 
HETATM   24  C19 UNK   900      30.202 -49.487 -59.916  1.00  0.00     0.003 A 
HETATM   25  C20 UNK   900      31.023 -48.668 -59.141  1.00  0.00     0.037 A 
BRANCH  21  26
HETATM   26  O6  UNK   900      32.232 -46.668 -58.824  1.00  0.00    -0.360 OA
HETATM   27  H25 UNK   900      32.793 -47.238 -58.274  1.00  0.00     0.217 HD
ENDBRANCH  21  26
ENDBRANCH   1  15
BRANCH   1  28
HETATM   28  C3  UNK   900      30.087 -46.966 -65.956  1.00  0.00     0.031 C 
BRANCH  28  29
HETATM   29  C5  UNK   900      28.833 -46.664 -66.802  1.00  0.00    -0.021 C 
HETATM   30  C11 UNK   900      28.895 -47.448 -68.117  1.00  0.00     0.009 C 
HETATM   31  C12 UNK   900      27.535 -47.000 -66.066  1.00  0.00     0.009 C 
ENDBRANCH  28  29
ENDBRANCH   1  28
TORSDOF 8
ENDMDL
MODEL 2
REMARK VINA RESULT:      -7.7      1.480      2.000
REMARK  8 active torsions:
REMARK  status: ('A' for Active; 'I' for Inactive)
REMARK    1  A    between atoms: O3_3  and  C7_15 
REMARK    2  A    between atoms: O6_6  and  C18_26 
REMARK    3  A    between atoms: N1_8  and  C1_9 
REMARK       I    between atoms: N1_8  and  C9_17 
REMARK    4  A    between atoms: C1_9  and  C2_10 
REMARK    5  A    between atoms: C1_9  and  C3_11 
REMARK    6  A    between atoms: C3_11  and  C5_13 
REMARK    7  A    between atoms: C6_14  and  C7_15 
REMARK    8  A    between atoms: C7_15  and  C9_17 
ROOT
HETATM    1  C1  UNK   900      31.359 -45.383 -64.155  1.00  0.00     0.114 C 
ENDROOT
BRANCH   1   2
HETATM    2  N1  UNK   900      32.433 -44.435 -63.965  1.00  0.00    -0.352 N 
HETATM    3  C9  UNK   900      32.370 -43.129 -64.422  1.00  0.00     0.249 C 
HETATM    4  O4  UNK   900      31.418 -42.637 -65.025  1.00  0.00    -0.271 OA
HETATM    5  H8  UNK   900      33.267 -44.754 -63.479  1.00  0.00     0.163 HD
BRANCH   3   6
HETATM    6  C7  UNK   900      33.618 -42.329 -64.075  1.00  0.00     0.239 C 
BRANCH   6   7
HETATM    7  O3  UNK   900      33.747 -42.253 -62.665  1.00  0.00    -0.384 OA
HETATM    8  H22 UNK   900      33.489 -41.358 -62.386  1.00  0.00     0.210 HD
ENDBRANCH   6   7
BRANCH   6   9
HETATM    9  C6  UNK   900      34.864 -42.993 -64.630  1.00  0.00     0.170 C 
HETATM   10  O2  UNK   900      34.600 -43.506 -65.943  1.00  0.00    -0.313 OA
HETATM   11  C17 UNK   900      35.728 -43.391 -66.709  1.00  0.00     0.259 C 
HETATM   12  O7  UNK   900      35.840 -43.817 -67.848  1.00  0.00    -0.265 OA
HETATM   13  C14 UNK   900      36.806 -42.701 -65.927  1.00  0.00     0.114 C 
HETATM   14  C10 UNK   900      36.016 -42.032 -64.826  1.00  0.00     0.045 C 
ENDBRANCH   6   9
ENDBRANCH   3   6
ENDBRANCH   1   2
BRANCH   1  15
HETATM   15  C2  UNK   900      31.375 -46.412 -63.033  1.00  0.00     0.159 C 
HETATM   16  O1  UNK   900      31.667 -45.712 -61.802  1.00  0.00    -0.309 OA
HETATM   17  C15 UNK   900      31.570 -46.349 -60.605  1.00  0.00     0.297 C 
HETATM   18  O5  UNK   900      32.013 -45.869 -59.570  1.00  0.00    -0.259 OA
HETATM   19  C13 UNK   900      30.864 -47.653 -60.614  1.00  0.00     0.079 A 
HETATM   20  C8  UNK   900      30.108 -48.037 -61.728  1.00  0.00    -0.037 A 
HETATM   21  C18 UNK   900      30.925 -48.478 -59.486  1.00  0.00     0.082 A 
HETATM   22  C4  UNK   900      30.036 -47.126 -62.916  1.00  0.00     0.074 C 
HETATM   23  C16 UNK   900      29.400 -49.244 -61.698  1.00  0.00     0.008 A 
HETATM   24  C19 UNK   900      29.466 -50.068 -60.575  1.00  0.00     0.003 A 
HETATM   25  C20 UNK   900      30.230 -49.687 -59.472  1.00  0.00     0.037 A 
BRANCH  21  26
HETATM   26  O6  UNK   900      31.657 -48.159 -58.381  1.00  0.00    -0.360 OA
HETATM   27  H25 UNK   900      31.110 -48.224 -57.582  1.00  0.00     0.217 HD
ENDBRANCH  21  26
ENDBRANCH   1  15
BRANCH   1  28
HETATM   28  C3  UNK   900      31.458 -46.071 -65.527  1.00  0.00     0.031 C 
BRANCH  28  29
HETATM   29  C5  UNK   900      30.393 -45.637 -66.557  1.00  0.00    -0.021 C 
HETATM   30  C11 UNK   900      31.070 -44.921 -67.730  1.00  0.00     0.009 C 
HETATM   31  C12 UNK   900      29.572 -46.816 -67.081  1.00  0.00     0.009 C 
ENDBRANCH  28  29
ENDBRANCH   1  28
TORSDOF 8
ENDMDL
MODEL 3
REMARK VINA RESULT:      -6.7      1.754      2.450
REMARK  8 active torsions:
REMARK  status: ('A' for Active; 'I' for Inactive)
REMARK    1  A    between atoms: O3_3  and  C7_15 
REMARK    2  A    between atoms: O6_6  and  C18_26 
REMARK    3  A    between atoms: N1_8  and  C1_9 
REMARK       I    between atoms: N1_8  and  C9_17 
REMARK    4  A    between atoms: C1_9  and  C2_10 
REMARK    5  A    between atoms: C1_9  and  C3_11 
REMARK    6  A    between atoms: C3_11  and  C5_13 
REMARK    7  A    between atoms: C6_14  and  C7_15 
REMARK    8  A    between atoms: C7_15  and  C9_17 
ROOT
HETATM    1  C1  UNK   900      31.051 -45.655 -64.629  1.00  0.00     0.114 C 
ENDROOT
BRANCH   1   2
HETATM    2  N1  UNK   900      32.255 -44.857 -64.604  1.00  0.00    -0.352 N 
HETATM    3  C9  UNK   900      32.289 -43.537 -65.026  1.00  0.00     0.249 C 
HETATM    4  O4  UNK   900      31.325 -42.909 -65.458  1.00  0.00    -0.271 OA
HETATM    5  H8  UNK   900      33.107 -45.295 -64.265  1.00  0.00     0.163 HD
BRANCH   3   6
HETATM    6  C7  UNK   900      33.670 -42.913 -64.875  1.00  0.00     0.239 C 
BRANCH   6   7
HETATM    7  O3  UNK   900      33.529 -41.539 -64.555  1.00  0.00    -0.384 OA
HETATM    8  H22 UNK   900      34.369 -41.094 -64.761  1.00  0.00     0.210 HD
ENDBRANCH   6   7
BRANCH   6   9
HETATM    9  C6  UNK   900      34.453 -43.582 -63.761  1.00  0.00     0.170 C 
HETATM   10  O2  UNK   900      35.104 -44.759 -64.262  1.00  0.00    -0.313 OA
HETATM   11  C17 UNK   900      36.306 -44.916 -63.626  1.00  0.00     0.259 C 
HETATM   12  O7  UNK   900      37.052 -45.870 -63.778  1.00  0.00    -0.265 OA
HETATM   13  C14 UNK   900      36.543 -43.763 -62.696  1.00  0.00     0.114 C 
HETATM   14  C10 UNK   900      35.581 -42.727 -63.227  1.00  0.00     0.045 C 
ENDBRANCH   6   9
ENDBRANCH   3   6
ENDBRANCH   1   2
BRANCH   1  15
HETATM   15  C2  UNK   900      30.792 -46.243 -63.249  1.00  0.00     0.159 C 
HETATM   16  O1  UNK   900      30.202 -47.549 -63.433  1.00  0.00    -0.309 OA
HETATM   17  C15 UNK   900      30.027 -48.384 -62.375  1.00  0.00     0.297 C 
HETATM   18  O5  UNK   900      29.341 -49.395 -62.445  1.00  0.00    -0.259 OA
HETATM   19  C13 UNK   900      30.743 -48.019 -61.129  1.00  0.00     0.079 A 
HETATM   20  C8  UNK   900      31.749 -47.046 -61.154  1.00  0.00    -0.037 A 
HETATM   21  C18 UNK   900      30.434 -48.683 -59.937  1.00  0.00     0.082 A 
HETATM   22  C4  UNK   900      32.081 -46.366 -62.449  1.00  0.00     0.074 C 
HETATM   23  C16 UNK   900      32.456 -46.754 -59.982  1.00  0.00     0.008 A 
HETATM   24  C19 UNK   900      32.144 -47.413 -58.793  1.00  0.00     0.003 A 
HETATM   25  C20 UNK   900      31.133 -48.373 -58.770  1.00  0.00     0.037 A 
BRANCH  21  26
HETATM   26  O6  UNK   900      29.455 -49.627 -59.854  1.00  0.00    -0.360 OA
HETATM   27  H25 UNK   900      28.582 -49.206 -59.813  1.00  0.00     0.217 HD
ENDBRANCH  21  26
ENDBRANCH   1  15
BRANCH   1  28
HETATM   28  C3  UNK   900      31.141 -46.767 -65.688  1.00  0.00     0.031 C 
BRANCH  28  29
HETATM   29  C5  UNK   900      30.221 -46.582 -66.914  1.00  0.00    -0.021 C 
HETATM   30  C11 UNK   900      28.815 -46.189 -66.450  1.00  0.00     0.009 C 
HETATM   31  C12 UNK   900      30.751 -45.530 -67.890  1.00  0.00     0.009 C 
ENDBRANCH  28  29
ENDBRANCH   1  28
TORSDOF 8
ENDMDL
MODEL 4
REMARK VINA RESULT:      -6.7      2.438      3.221
REMARK  8 active torsions:
REMARK  status: ('A' for Active; 'I' for Inactive)
REMARK    1  A    between atoms: O3_3  and  C7_15 
REMARK    2  A    between atoms: O6_6  and  C18_26 
REMARK    3  A    between atoms: N1_8  and  C1_9 
REMARK       I    between atoms: N1_8  and  C9_17 
REMARK    4  A    between atoms: C1_9  and  C2_10 
REMARK    5  A    between atoms: C1_9  and  C3_11 
REMARK    6  A    between atoms: C3_11  and  C5_13 
REMARK    7  A    between atoms: C6_14  and  C7_15 
REMARK    8  A    between atoms: C7_15  and  C9_17 
ROOT
HETATM    1  C1  UNK   900      31.292 -46.679 -63.570  1.00  0.00     0.114 C 
ENDROOT
BRANCH   1   2
HETATM    2  N1  UNK   900      32.347 -45.727 -63.832  1.00  0.00    -0.352 N 
HETATM    3  C9  UNK   900      32.467 -44.531 -63.142  1.00  0.00     0.249 C 
HETATM    4  O4  UNK   900      31.711 -44.151 -62.251  1.00  0.00    -0.271 OA
HETATM    5  H8  UNK   900      33.020 -45.953 -64.560  1.00  0.00     0.163 HD
BRANCH   3   6
HETATM    6  C7  UNK   900      33.674 -43.719 -63.590  1.00  0.00     0.239 C 
BRANCH   6   7
HETATM    7  O3  UNK   900      34.429 -44.478 -64.520  1.00  0.00    -0.384 OA
HETATM    8  H22 UNK   900      34.376 -45.413 -64.260  1.00  0.00     0.210 HD
ENDBRANCH   6   7
BRANCH   6   9
HETATM    9  C6  UNK   900      33.246 -42.430 -64.266  1.00  0.00     0.170 C 
HETATM   10  O2  UNK   900      34.373 -41.822 -64.914  1.00  0.00    -0.313 OA
HETATM   11  C17 UNK   900      33.954 -41.200 -66.059  1.00  0.00     0.259 C 
HETATM   12  O7  UNK   900      34.670 -40.525 -66.783  1.00  0.00    -0.265 OA
HETATM   13  C14 UNK   900      32.489 -41.445 -66.264  1.00  0.00     0.114 C 
HETATM   14  C10 UNK   900      32.243 -42.643 -65.378  1.00  0.00     0.045 C 
ENDBRANCH   6   9
ENDBRANCH   3   6
ENDBRANCH   1   2
BRANCH   1  15
HETATM   15  C2  UNK   900      31.875 -47.934 -62.937  1.00  0.00     0.159 C 
HETATM   16  O1  UNK   900      33.251 -47.653 -62.595  1.00  0.00    -0.309 OA
HETATM   17  C15 UNK   900      33.973 -48.533 -61.851  1.00  0.00     0.297 C 
HETATM   18  O5  UNK   900      35.187 -48.442 -61.726  1.00  0.00    -0.259 OA
HETATM   19  C13 UNK   900      33.201 -49.600 -61.170  1.00  0.00     0.079 A 
HETATM   20  C8  UNK   900      31.807 -49.509 -61.076  1.00  0.00    -0.037 A 
HETATM   21  C18 UNK   900      33.878 -50.675 -60.586  1.00  0.00     0.082 A 
HETATM   22  C4  UNK   900      31.104 -48.335 -61.688  1.00  0.00     0.074 C 
HETATM   23  C16 UNK   900      31.097 -50.494 -60.379  1.00  0.00     0.008 A 
HETATM   24  C19 UNK   900      31.773 -51.569 -59.802  1.00  0.00     0.003 A 
HETATM   25  C20 UNK   900      33.161 -51.660 -59.907  1.00  0.00     0.037 A 
BRANCH  21  26
HETATM   26  O6  UNK   900      35.232 -50.818 -60.659  1.00  0.00    -0.360 OA
HETATM   27  H25 UNK   900      35.488 -51.165 -61.529  1.00  0.00     0.217 HD
ENDBRANCH  21  26
ENDBRANCH   1  15
BRANCH   1  28
HETATM   28  C3  UNK   900      30.520 -47.023 -64.855  1.00  0.00     0.031 C 
BRANCH  28  29
HETATM   29  C5  UNK   900      29.284 -46.142 -65.135  1.00  0.00    -0.021 C 
HETATM   30  C11 UNK   900      29.658 -45.024 -66.113  1.00  0.00     0.009 C 
HETATM   31  C12 UNK   900      28.109 -46.943 -65.696  1.00  0.00     0.009 C 
ENDBRANCH  28  29
ENDBRANCH   1  28
TORSDOF 8
ENDMDL
MODEL 5
REMARK VINA RESULT:      -6.4     23.322     25.465
REMARK  8 active torsions:
REMARK  status: ('A' for Active; 'I' for Inactive)
REMARK    1  A    between atoms: O3_3  and  C7_15 
REMARK    2  A    between atoms: O6_6  and  C18_26 
REMARK    3  A    between atoms: N1_8  and  C1_9 
REMARK       I    between atoms: N1_8  and  C9_17 
REMARK    4  A    between atoms: C1_9  and  C2_10 
REMARK    5  A    between atoms: C1_9  and  C3_11 
REMARK    6  A    between atoms: C3_11  and  C5_13 
REMARK    7  A    between atoms: C6_14  and  C7_15 
REMARK    8  A    between atoms: C7_15  and  C9_17 
ROOT
HETATM    1  C1  UNK   900      21.734 -31.067 -49.134  1.00  0.00     0.114 C 
ENDROOT
BRANCH   1   2
HETATM    2  N1  UNK   900      20.491 -31.086 -48.397  1.00  0.00    -0.352 N 
HETATM    3  C9  UNK   900      20.441 -31.079 -47.012  1.00  0.00     0.249 C 
HETATM    4  O4  UNK   900      21.420 -31.055 -46.270  1.00  0.00    -0.271 OA
HETATM    5  H8  UNK   900      19.625 -31.112 -48.929  1.00  0.00     0.163 HD
BRANCH   3   6
HETATM    6  C7  UNK   900      19.014 -31.079 -46.482  1.00  0.00     0.239 C 
BRANCH   6   7
HETATM    7  O3  UNK   900      18.981 -31.737 -45.227  1.00  0.00    -0.384 OA
HETATM    8  H22 UNK   900      18.461 -31.191 -44.613  1.00  0.00     0.210 HD
ENDBRANCH   6   7
BRANCH   6   9
HETATM    9  C6  UNK   900      18.502 -29.663 -46.289  1.00  0.00     0.170 C 
HETATM   10  O2  UNK   900      18.232 -29.064 -47.563  1.00  0.00    -0.313 OA
HETATM   11  C17 UNK   900      17.154 -28.229 -47.451  1.00  0.00     0.259 C 
HETATM   12  O7  UNK   900      16.733 -27.514 -48.347  1.00  0.00    -0.265 OA
HETATM   13  C14 UNK   900      16.598 -28.301 -46.060  1.00  0.00     0.114 C 
HETATM   14  C10 UNK   900      17.181 -29.600 -45.555  1.00  0.00     0.045 C 
ENDBRANCH   6   9
ENDBRANCH   3   6
ENDBRANCH   1   2
BRANCH   1  15
HETATM   15  C2  UNK   900      21.762 -29.864 -50.067  1.00  0.00     0.159 C 
HETATM   16  O1  UNK   900      20.725 -28.954 -49.638  1.00  0.00    -0.309 OA
HETATM   17  C15 UNK   900      20.631 -27.708 -50.176  1.00  0.00     0.297 C 
HETATM   18  O5  UNK   900      19.652 -26.994 -50.007  1.00  0.00    -0.259 OA
HETATM   19  C13 UNK   900      21.801 -27.247 -50.960  1.00  0.00     0.079 A 
HETATM   20  C8  UNK   900      23.015 -27.941 -50.890  1.00  0.00    -0.037 A 
HETATM   21  C18 UNK   900      21.696 -26.089 -51.739  1.00  0.00     0.082 A 
HETATM   22  C4  UNK   900      23.113 -29.164 -50.029  1.00  0.00     0.074 C 
HETATM   23  C16 UNK   900      24.127 -27.459 -51.590  1.00  0.00     0.008 A 
HETATM   24  C19 UNK   900      24.019 -26.308 -52.370  1.00  0.00     0.003 A 
HETATM   25  C20 UNK   900      22.805 -25.626 -52.446  1.00  0.00     0.037 A 
BRANCH  21  26
HETATM   26  O6  UNK   900      20.535 -25.384 -51.854  1.00  0.00    -0.360 OA
HETATM   27  H25 UNK   900      19.771 -25.964 -51.704  1.00  0.00     0.217 HD
ENDBRANCH  21  26
ENDBRANCH   1  15
BRANCH   1  28
HETATM   28  C3  UNK   900      21.936 -32.373 -49.921  1.00  0.00     0.031 C 
BRANCH  28  29
HETATM   29  C5  UNK   900      23.032 -33.310 -49.369  1.00  0.00    -0.021 C 
HETATM   30  C11 UNK   900      24.374 -32.573 -49.339  1.00  0.00     0.009 C 
HETATM   31  C12 UNK   900      22.703 -33.833 -47.970  1.00  0.00     0.009 C 
ENDBRANCH  28  29
ENDBRANCH   1  28
TORSDOF 8
ENDMDL
MODEL 6
REMARK VINA RESULT:      -6.2     21.974     24.155
REMARK  8 active torsions:
REMARK  status: ('A' for Active; 'I' for Inactive)
REMARK    1  A    between atoms: O3_3  and  C7_15 
REMARK    2  A    between atoms: O6_6  and  C18_26 
REMARK    3  A    between atoms: N1_8  and  C1_9 
REMARK       I    between atoms: N1_8  and  C9_17 
REMARK    4  A    between atoms: C1_9  and  C2_10 
REMARK    5  A    between atoms: C1_9  and  C3_11 
REMARK    6  A    between atoms: C3_11  and  C5_13 
REMARK    7  A    between atoms: C6_14  and  C7_15 
REMARK    8  A    between atoms: C7_15  and  C9_17 
ROOT
HETATM    1  C1  UNK   900      22.874 -30.917 -49.505  1.00  0.00     0.114 C 
ENDROOT
BRANCH   1   2
HETATM    2  N1  UNK   900      21.684 -30.230 -49.060  1.00  0.00    -0.352 N 
HETATM    3  C9  UNK   900      21.533 -29.752 -47.767  1.00  0.00     0.249 C 
HETATM    4  O4  UNK   900      22.372 -29.854 -46.875  1.00  0.00    -0.271 OA
HETATM    5  H8  UNK   900      20.930 -30.102 -49.730  1.00  0.00     0.163 HD
BRANCH   3   6
HETATM    6  C7  UNK   900      20.200 -29.047 -47.559  1.00  0.00     0.239 C 
BRANCH   6   7
HETATM    7  O3  UNK   900      19.790 -28.453 -48.780  1.00  0.00    -0.384 OA
HETATM    8  H22 UNK   900      20.254 -27.605 -48.874  1.00  0.00     0.210 HD
ENDBRANCH   6   7
BRANCH   6   9
HETATM    9  C6  UNK   900      19.126 -30.026 -47.123  1.00  0.00     0.170 C 
HETATM   10  O2  UNK   900      19.648 -31.361 -47.137  1.00  0.00    -0.313 OA
HETATM   11  C17 UNK   900      19.082 -32.079 -46.119  1.00  0.00     0.259 C 
HETATM   12  O7  UNK   900      19.265 -33.271 -45.924  1.00  0.00    -0.265 OA
HETATM   13  C14 UNK   900      18.182 -31.192 -45.311  1.00  0.00     0.114 C 
HETATM   14  C10 UNK   900      18.669 -29.815 -45.696  1.00  0.00     0.045 C 
ENDBRANCH   6   9
ENDBRANCH   3   6
ENDBRANCH   1   2
BRANCH   1  15
HETATM   15  C2  UNK   900      23.631 -30.046 -50.498  1.00  0.00     0.159 C 
HETATM   16  O1  UNK   900      22.881 -28.822 -50.667  1.00  0.00    -0.309 OA
HETATM   17  C15 UNK   900      23.408 -27.778 -51.361  1.00  0.00     0.297 C 
HETATM   18  O5  UNK   900      22.735 -26.819 -51.712  1.00  0.00    -0.259 OA
HETATM   19  C13 UNK   900      24.861 -27.850 -51.646  1.00  0.00     0.079 A 
HETATM   20  C8  UNK   900      25.663 -28.788 -50.984  1.00  0.00    -0.037 A 
HETATM   21  C18 UNK   900      25.432 -26.947 -52.549  1.00  0.00     0.082 A 
HETATM   22  C4  UNK   900      25.034 -29.730 -50.002  1.00  0.00     0.074 C 
HETATM   23  C16 UNK   900      27.043 -28.805 -51.221  1.00  0.00     0.008 A 
HETATM   24  C19 UNK   900      27.610 -27.908 -52.125  1.00  0.00     0.003 A 
HETATM   25  C20 UNK   900      26.806 -26.983 -52.790  1.00  0.00     0.037 A 
BRANCH  21  26
HETATM   26  O6  UNK   900      24.696 -26.024 -53.230  1.00  0.00    -0.360 OA
HETATM   27  H25 UNK   900      24.150 -26.458 -53.904  1.00  0.00     0.217 HD
ENDBRANCH  21  26
ENDBRANCH   1  15
BRANCH   1  28
HETATM   28  C3  UNK   900      22.530 -32.281 -50.127  1.00  0.00     0.031 C 
BRANCH  28  29
HETATM   29  C5  UNK   900      23.061 -33.507 -49.354  1.00  0.00    -0.021 C 
HETATM   30  C11 UNK   900      24.591 -33.543 -49.429  1.00  0.00     0.009 C 
HETATM   31  C12 UNK   900      22.620 -33.511 -47.889  1.00  0.00     0.009 C 
ENDBRANCH  28  29
ENDBRANCH   1  28
TORSDOF 8
ENDMDL
MODEL 7
REMARK VINA RESULT:      -6.1     22.848     24.960
REMARK  8 active torsions:
REMARK  status: ('A' for Active; 'I' for Inactive)
REMARK    1  A    between atoms: O3_3  and  C7_15 
REMARK    2  A    between atoms: O6_6  and  C18_26 
REMARK    3  A    between atoms: N1_8  and  C1_9 
REMARK       I    between atoms: N1_8  and  C9_17 
REMARK    4  A    between atoms: C1_9  and  C2_10 
REMARK    5  A    between atoms: C1_9  and  C3_11 
REMARK    6  A    between atoms: C3_11  and  C5_13 
REMARK    7  A    between atoms: C6_14  and  C7_15 
REMARK    8  A    between atoms: C7_15  and  C9_17 
ROOT
HETATM    1  C1  UNK   900      21.914 -31.163 -49.180  1.00  0.00     0.114 C 
ENDROOT
BRANCH   1   2
HETATM    2  N1  UNK   900      20.547 -30.973 -48.751  1.00  0.00    -0.352 N 
HETATM    3  C9  UNK   900      20.161 -31.047 -47.422  1.00  0.00     0.249 C 
HETATM    4  O4  UNK   900      20.916 -31.276 -46.479  1.00  0.00    -0.271 OA
HETATM    5  H8  UNK   900      19.848 -30.783 -49.464  1.00  0.00     0.163 HD
BRANCH   3   6
HETATM    6  C7  UNK   900      18.674 -30.786 -47.232  1.00  0.00     0.239 C 
BRANCH   6   7
HETATM    7  O3  UNK   900      18.195 -31.571 -46.153  1.00  0.00    -0.384 OA
HETATM    8  H22 UNK   900      17.256 -31.766 -46.315  1.00  0.00     0.210 HD
ENDBRANCH   6   7
BRANCH   6   9
HETATM    9  C6  UNK   900      18.412 -29.326 -46.910  1.00  0.00     0.170 C 
HETATM   10  O2  UNK   900      18.732 -28.511 -48.046  1.00  0.00    -0.313 OA
HETATM   11  C17 UNK   900      17.867 -27.452 -48.100  1.00  0.00     0.259 C 
HETATM   12  O7  UNK   900      17.938 -26.538 -48.907  1.00  0.00    -0.265 OA
HETATM   13  C14 UNK   900      16.851 -27.567 -47.002  1.00  0.00     0.114 C 
HETATM   14  C10 UNK   900      16.955 -29.028 -46.631  1.00  0.00     0.045 C 
ENDBRANCH   6   9
ENDBRANCH   3   6
ENDBRANCH   1   2
BRANCH   1  15
HETATM   15  C2  UNK   900      22.297 -30.079 -50.177  1.00  0.00     0.159 C 
HETATM   16  O1  UNK   900      21.485 -28.918 -49.894  1.00  0.00    -0.309 OA
HETATM   17  C15 UNK   900      21.733 -27.732 -50.513  1.00  0.00     0.297 C 
HETATM   18  O5  UNK   900      20.948 -26.795 -50.471  1.00  0.00    -0.259 OA
HETATM   19  C13 UNK   900      23.032 -27.624 -51.220  1.00  0.00     0.079 A 
HETATM   20  C8  UNK   900      24.033 -28.578 -51.003  1.00  0.00    -0.037 A 
HETATM   21  C18 UNK   900      23.264 -26.540 -52.072  1.00  0.00     0.082 A 
HETATM   22  C4  UNK   900      23.771 -29.719 -50.066  1.00  0.00     0.074 C 
HETATM   23  C16 UNK   900      25.274 -28.431 -51.633  1.00  0.00     0.008 A 
HETATM   24  C19 UNK   900      25.503 -27.352 -52.487  1.00  0.00     0.003 A 
HETATM   25  C20 UNK   900      24.499 -26.410 -52.708  1.00  0.00     0.037 A 
BRANCH  21  26
HETATM   26  O6  UNK   900      22.320 -25.591 -52.329  1.00  0.00    -0.360 OA
HETATM   27  H25 UNK   900      21.444 -25.902 -52.051  1.00  0.00     0.217 HD
ENDBRANCH  21  26
ENDBRANCH   1  15
BRANCH   1  28
HETATM   28  C3  UNK   900      22.118 -32.561 -49.788  1.00  0.00     0.031 C 
BRANCH  28  29
HETATM   29  C5  UNK   900      22.984 -33.523 -48.947  1.00  0.00    -0.021 C 
HETATM   30  C11 UNK   900      23.984 -34.246 -49.854  1.00  0.00     0.009 C 
HETATM   31  C12 UNK   900      23.735 -32.805 -47.825  1.00  0.00     0.009 C 
ENDBRANCH  28  29
ENDBRANCH   1  28
TORSDOF 8
ENDMDL
MODEL 8
REMARK VINA RESULT:      -6.1     23.791     26.286
REMARK  8 active torsions:
REMARK  status: ('A' for Active; 'I' for Inactive)
REMARK    1  A    between atoms: O3_3  and  C7_15 
REMARK    2  A    between atoms: O6_6  and  C18_26 
REMARK    3  A    between atoms: N1_8  and  C1_9 
REMARK       I    between atoms: N1_8  and  C9_17 
REMARK    4  A    between atoms: C1_9  and  C2_10 
REMARK    5  A    between atoms: C1_9  and  C3_11 
REMARK    6  A    between atoms: C3_11  and  C5_13 
REMARK    7  A    between atoms: C6_14  and  C7_15 
REMARK    8  A    between atoms: C7_15  and  C9_17 
ROOT
HETATM    1  C1  UNK   900      13.765 -64.808 -67.735  1.00  0.00     0.114 C 
ENDROOT
BRANCH   1   2
HETATM    2  N1  UNK   900      15.127 -64.795 -68.217  1.00  0.00    -0.352 N 
HETATM    3  C9  UNK   900      15.808 -63.623 -68.508  1.00  0.00     0.249 C 
HETATM    4  O4  UNK   900      15.346 -62.490 -68.391  1.00  0.00    -0.271 OA
HETATM    5  H8  UNK   900      15.593 -65.689 -68.350  1.00  0.00     0.163 HD
BRANCH   3   6
HETATM    6  C7  UNK   900      17.234 -63.879 -68.976  1.00  0.00     0.239 C 
BRANCH   6   7
HETATM    7  O3  UNK   900      17.647 -62.818 -69.821  1.00  0.00    -0.384 OA
HETATM    8  H22 UNK   900      17.002 -62.740 -70.545  1.00  0.00     0.210 HD
ENDBRANCH   6   7
BRANCH   6   9
HETATM    9  C6  UNK   900      18.191 -63.949 -67.800  1.00  0.00     0.170 C 
HETATM   10  O2  UNK   900      17.567 -64.630 -66.703  1.00  0.00    -0.313 OA
HETATM   11  C17 UNK   900      18.511 -65.349 -66.021  1.00  0.00     0.259 C 
HETATM   12  O7  UNK   900      18.300 -65.969 -64.990  1.00  0.00    -0.265 OA
HETATM   13  C14 UNK   900      19.837 -65.229 -66.711  1.00  0.00     0.114 C 
HETATM   14  C10 UNK   900      19.434 -64.762 -68.090  1.00  0.00     0.045 C 
ENDBRANCH   6   9
ENDBRANCH   3   6
ENDBRANCH   1   2
BRANCH   1  15
HETATM   15  C2  UNK   900      13.623 -65.838 -66.623  1.00  0.00     0.159 C 
HETATM   16  O1  UNK   900      14.548 -65.479 -65.572  1.00  0.00    -0.309 OA
HETATM   17  C15 UNK   900      14.514 -66.119 -64.372  1.00  0.00     0.297 C 
HETATM   18  O5  UNK   900      15.407 -66.002 -63.544  1.00  0.00    -0.259 OA
HETATM   19  C13 UNK   900      13.314 -66.947 -64.107  1.00  0.00     0.079 A 
HETATM   20  C8  UNK   900      12.182 -66.828 -64.922  1.00  0.00    -0.037 A 
HETATM   21  C18 UNK   900      13.306 -67.818 -63.013  1.00  0.00     0.082 A 
HETATM   22  C4  UNK   900      12.203 -65.869 -66.074  1.00  0.00     0.074 C 
HETATM   23  C16 UNK   900      11.036 -67.574 -64.624  1.00  0.00     0.008 A 
HETATM   24  C19 UNK   900      11.031 -68.446 -63.536  1.00  0.00     0.003 A 
HETATM   25  C20 UNK   900      12.165 -68.570 -62.734  1.00  0.00     0.037 A 
BRANCH  21  26
HETATM   26  O6  UNK   900      14.385 -67.983 -62.197  1.00  0.00    -0.360 OA
HETATM   27  H25 UNK   900      14.097 -68.141 -61.283  1.00  0.00     0.217 HD
ENDBRANCH  21  26
ENDBRANCH   1  15
BRANCH   1  28
HETATM   28  C3  UNK   900      12.773 -65.094 -68.874  1.00  0.00     0.031 C 
BRANCH  28  29
HETATM   29  C5  UNK   900      11.799 -63.942 -69.201  1.00  0.00    -0.021 C 
HETATM   30  C11 UNK   900      10.364 -64.475 -69.243  1.00  0.00     0.009 C 
HETATM   31  C12 UNK   900      11.891 -62.795 -68.194  1.00  0.00     0.009 C 
ENDBRANCH  28  29
ENDBRANCH   1  28
TORSDOF 8
ENDMDL
MODEL 9
REMARK VINA RESULT:      -6.0     23.767     27.040
REMARK  8 active torsions:
REMARK  status: ('A' for Active; 'I' for Inactive)
REMARK    1  A    between atoms: O3_3  and  C7_15 
REMARK    2  A    between atoms: O6_6  and  C18_26 
REMARK    3  A    between atoms: N1_8  and  C1_9 
REMARK       I    between atoms: N1_8  and  C9_17 
REMARK    4  A    between atoms: C1_9  and  C2_10 
REMARK    5  A    between atoms: C1_9  and  C3_11 
REMARK    6  A    between atoms: C3_11  and  C5_13 
REMARK    7  A    between atoms: C6_14  and  C7_15 
REMARK    8  A    between atoms: C7_15  and  C9_17 
ROOT
HETATM    1  C1  UNK   900       8.623 -53.293 -76.181  1.00  0.00     0.114 C 
ENDROOT
BRANCH   1   2
HETATM    2  N1  UNK   900       9.354 -53.067 -74.955  1.00  0.00    -0.352 N 
HETATM    3  C9  UNK   900       8.806 -53.294 -73.702  1.00  0.00     0.249 C 
HETATM    4  O4  UNK   900       7.667 -53.705 -73.494  1.00  0.00    -0.271 OA
HETATM    5  H8  UNK   900      10.307 -52.720 -75.028  1.00  0.00     0.163 HD
BRANCH   3   6
HETATM    6  C7  UNK   900       9.788 -53.002 -72.576  1.00  0.00     0.239 C 
BRANCH   6   7
HETATM    7  O3  UNK   900      10.904 -53.869 -72.692  1.00  0.00    -0.384 OA
HETATM    8  H22 UNK   900      10.930 -54.435 -71.902  1.00  0.00     0.210 HD
ENDBRANCH   6   7
BRANCH   6   9
HETATM    9  C6  UNK   900      10.290 -51.572 -72.645  1.00  0.00     0.170 C 
HETATM   10  O2  UNK   900       9.352 -50.761 -73.365  1.00  0.00    -0.313 OA
HETATM   11  C17 UNK   900       9.336 -49.502 -72.827  1.00  0.00     0.259 C 
HETATM   12  O7  UNK   900       8.698 -48.563 -73.277  1.00  0.00    -0.265 OA
HETATM   13  C14 UNK   900      10.245 -49.448 -71.635  1.00  0.00     0.114 C 
HETATM   14  C10 UNK   900      10.398 -50.910 -71.289  1.00  0.00     0.045 C 
ENDBRANCH   6   9
ENDBRANCH   3   6
ENDBRANCH   1   2
BRANCH   1  15
HETATM   15  C2  UNK   900       9.184 -54.512 -76.898  1.00  0.00     0.159 C 
HETATM   16  O1  UNK   900       8.803 -54.416 -78.289  1.00  0.00    -0.309 OA
HETATM   17  C15 UNK   900       9.316 -55.277 -79.208  1.00  0.00     0.297 C 
HETATM   18  O5  UNK   900       8.861 -55.373 -80.340  1.00  0.00    -0.259 OA
HETATM   19  C13 UNK   900      10.485 -56.077 -78.772  1.00  0.00     0.079 A 
HETATM   20  C8  UNK   900      11.172 -55.740 -77.600  1.00  0.00    -0.037 A 
HETATM   21  C18 UNK   900      10.922 -57.145 -79.563  1.00  0.00     0.082 A 
HETATM   22  C4  UNK   900      10.700 -54.576 -76.781  1.00  0.00     0.074 C 
HETATM   23  C16 UNK   900      12.309 -56.469 -77.232  1.00  0.00     0.008 A 
HETATM   24  C19 UNK   900      12.741 -57.537 -78.018  1.00  0.00     0.003 A 
HETATM   25  C20 UNK   900      12.047 -57.876 -79.180  1.00  0.00     0.037 A 
BRANCH  21  26
HETATM   26  O6  UNK   900      10.283 -57.524 -80.705  1.00  0.00    -0.360 OA
HETATM   27  H25 UNK   900      10.678 -58.337 -81.059  1.00  0.00     0.217 HD
ENDBRANCH  21  26
ENDBRANCH   1  15
BRANCH   1  28
HETATM   28  C3  UNK   900       8.666 -52.055 -77.092  1.00  0.00     0.031 C 
BRANCH  28  29
HETATM   29  C5  UNK   900       7.300 -51.389 -77.361  1.00  0.00    -0.021 C 
HETATM   30  C11 UNK   900       6.881 -50.560 -76.143  1.00  0.00     0.009 C 
HETATM   31  C12 UNK   900       7.317 -50.501 -78.605  1.00  0.00     0.009 C 
ENDBRANCH  28  29
ENDBRANCH   1  28
TORSDOF 8
ENDMDL
