MODEL 1
REMARK VINA RESULT:      -7.0      0.000      0.000
REMARK  8 active torsions:
REMARK  status: ('A' for Active; 'I' for Inactive)
REMARK    1  A    between atoms: O2_2  and  C1_10 
REMARK    2  A    between atoms: O3_3  and  C3_12 
REMARK    3  A    between atoms: O4_4  and  C2_11 
REMARK    4  A    between atoms: O5_5  and  C5_14 
REMARK    5  A    between atoms: O5_5  and  C9_18 
REMARK    6  A    between atoms: O6_6  and  N3_9 
REMARK    7  A    between atoms: C12_21  and  C14_23 
REMARK    8  A    between atoms: C13_22  and  C15_24 
ROOT
HETATM    1  N1  UNK   900      33.746 -34.493 -58.499  1.00  0.00    -0.245 NA
HETATM    2  C9  UNK   900      35.741 -36.437 -58.730  1.00  0.00     0.076 A 
HETATM    3  C10 UNK   900      36.055 -35.092 -58.890  1.00  0.00     0.071 A 
HETATM    4  C11 UNK   900      34.431 -36.811 -58.454  1.00  0.00     0.070 A 
HETATM    5  C12 UNK   900      35.031 -34.168 -58.766  1.00  0.00     0.088 A 
HETATM    6  C13 UNK   900      33.479 -35.810 -58.349  1.00  0.00     0.079 A 
ENDROOT
BRANCH   2   7
HETATM    7  O5  UNK   900      36.719 -37.390 -58.843  1.00  0.00    -0.318 OA
BRANCH   7   8
HETATM    8  C5  UNK   900      36.426 -38.678 -58.300  1.00  0.00     0.298 C 
HETATM    9  O1  UNK   900      36.854 -38.725 -56.941  1.00  0.00    -0.351 OA
HETATM   10  C4  UNK   900      36.680 -39.985 -56.281  1.00  0.00     0.152 C 
HETATM   11  C1  UNK   900      37.351 -41.131 -57.059  1.00  0.00     0.180 C 
HETATM   12  C6  UNK   900      35.208 -40.229 -55.958  1.00  0.00     0.042 C 
HETATM   13  C2  UNK   900      37.014 -41.121 -58.550  1.00  0.00     0.183 C 
HETATM   14  C3  UNK   900      37.183 -39.714 -59.130  1.00  0.00     0.207 C 
BRANCH  11  15
HETATM   15  O2  UNK   900      38.770 -40.990 -56.940  1.00  0.00    -0.385 OA
HETATM   16  C7  UNK   900      39.445 -42.153 -57.398  1.00  0.00     0.202 C 
ENDBRANCH  11  15
BRANCH  13  17
HETATM   17  O4  UNK   900      35.671 -41.556 -58.746  1.00  0.00    -0.390 OA
HETATM   18  H9  UNK   900      35.670 -42.528 -58.725  1.00  0.00     0.210 HD
ENDBRANCH  13  17
BRANCH  14  19
HETATM   19  O3  UNK   900      36.712 -39.681 -60.474  1.00  0.00    -0.383 OA
HETATM   20  C8  UNK   900      37.756 -39.967 -61.392  1.00  0.00     0.202 C 
ENDBRANCH  14  19
ENDBRANCH   7   8
ENDBRANCH   2   7
BRANCH   5  21
HETATM   21  C14 UNK   900      35.282 -32.754 -58.920  1.00  0.00     0.085 A 
HETATM   22  N2  UNK   900      34.179 -31.972 -58.884  1.00  0.00    -0.259 NA
HETATM   23  C18 UNK   900      34.381 -30.644 -59.025  1.00  0.00     0.117 A 
HETATM   24  C19 UNK   900      35.627 -30.062 -59.200  1.00  0.00     0.019 A 
HETATM   25  C17 UNK   900      36.736 -30.899 -59.232  1.00  0.00     0.004 A 
HETATM   26  C16 UNK   900      36.569 -32.272 -59.090  1.00  0.00     0.034 A 
ENDBRANCH   5  21
BRANCH   6  27
HETATM   27  C15 UNK   900      32.094 -36.143 -58.063  1.00  0.00     0.177 C 
HETATM   28  N3  UNK   900      31.735 -37.258 -57.492  1.00  0.00    -0.146 NA
BRANCH  28  29
HETATM   29  O6  UNK   900      30.345 -37.282 -57.356  1.00  0.00    -0.266 OA
HETATM   30  H23 UNK   900      30.059 -37.324 -58.284  1.00  0.00     0.247 HD
ENDBRANCH  28  29
ENDBRANCH   6  27
TORSDOF 8
ENDMDL
MODEL 2
REMARK VINA RESULT:      -6.0     32.881     35.175
REMARK  8 active torsions:
REMARK  status: ('A' for Active; 'I' for Inactive)
REMARK    1  A    between atoms: O2_2  and  C1_10 
REMARK    2  A    between atoms: O3_3  and  C3_12 
REMARK    3  A    between atoms: O4_4  and  C2_11 
REMARK    4  A    between atoms: O5_5  and  C5_14 
REMARK    5  A    between atoms: O5_5  and  C9_18 
REMARK    6  A    between atoms: O6_6  and  N3_9 
REMARK    7  A    between atoms: C12_21  and  C14_23 
REMARK    8  A    between atoms: C13_22  and  C15_24 
ROOT
HETATM    1  N1  UNK   900      21.343 -65.332 -67.110  1.00  0.00    -0.245 NA
HETATM    2  C9  UNK   900      19.403 -65.865 -65.169  1.00  0.00     0.076 A 
HETATM    3  C10 UNK   900      20.712 -66.294 -64.983  1.00  0.00     0.071 A 
HETATM    4  C11 UNK   900      19.063 -65.169 -66.324  1.00  0.00     0.070 A 
HETATM    5  C12 UNK   900      21.636 -66.006 -65.974  1.00  0.00     0.088 A 
HETATM    6  C13 UNK   900      20.060 -64.930 -67.255  1.00  0.00     0.079 A 
ENDROOT
BRANCH   2   7
HETATM    7  O5  UNK   900      18.452 -66.126 -64.218  1.00  0.00    -0.318 OA
BRANCH   7   8
HETATM    8  C5  UNK   900      17.126 -66.376 -64.687  1.00  0.00     0.298 C 
HETATM    9  O1  UNK   900      16.196 -65.671 -63.868  1.00  0.00    -0.351 OA
HETATM   10  C4  UNK   900      14.814 -65.878 -64.183  1.00  0.00     0.152 C 
HETATM   11  C1  UNK   900      14.450 -67.374 -64.184  1.00  0.00     0.180 C 
HETATM   12  C6  UNK   900      14.434 -65.144 -65.467  1.00  0.00     0.042 C 
HETATM   13  C2  UNK   900      15.437 -68.231 -64.976  1.00  0.00     0.183 C 
HETATM   14  C3  UNK   900      16.878 -67.881 -64.595  1.00  0.00     0.207 C 
BRANCH  11  15
HETATM   15  O2  UNK   900      14.462 -67.845 -62.833  1.00  0.00    -0.385 OA
HETATM   16  C7  UNK   900      13.163 -68.225 -62.406  1.00  0.00     0.202 C 
ENDBRANCH  11  15
BRANCH  13  17
HETATM   17  O4  UNK   900      15.252 -68.017 -66.373  1.00  0.00    -0.390 OA
HETATM   18  H9  UNK   900      14.297 -68.065 -66.554  1.00  0.00     0.210 HD
ENDBRANCH  13  17
BRANCH  14  19
HETATM   19  O3  UNK   900      17.789 -68.565 -65.451  1.00  0.00    -0.383 OA
HETATM   20  C8  UNK   900      18.420 -69.641 -64.776  1.00  0.00     0.202 C 
ENDBRANCH  14  19
ENDBRANCH   7   8
ENDBRANCH   2   7
BRANCH   5  21
HETATM   21  C14 UNK   900      23.014 -66.420 -65.851  1.00  0.00     0.085 A 
HETATM   22  N2  UNK   900      23.828 -65.997 -66.845  1.00  0.00    -0.259 NA
HETATM   23  C18 UNK   900      25.124 -66.369 -66.757  1.00  0.00     0.117 A 
HETATM   24  C19 UNK   900      25.643 -67.140 -65.729  1.00  0.00     0.019 A 
HETATM   25  C17 UNK   900      24.775 -67.555 -64.726  1.00  0.00     0.004 A 
HETATM   26  C16 UNK   900      23.433 -67.193 -64.780  1.00  0.00     0.034 A 
ENDBRANCH   5  21
BRANCH   6  27
HETATM   27  C15 UNK   900      19.761 -64.209 -68.480  1.00  0.00     0.177 C 
HETATM   28  N3  UNK   900      18.675 -63.509 -68.645  1.00  0.00    -0.146 NA
BRANCH  28  29
HETATM   29  O6  UNK   900      18.679 -62.941 -69.921  1.00  0.00    -0.266 OA
HETATM   30  H23 UNK   900      18.110 -63.559 -70.412  1.00  0.00     0.247 HD
ENDBRANCH  28  29
ENDBRANCH   6  27
TORSDOF 8
ENDMDL
MODEL 3
REMARK VINA RESULT:      -5.8      2.039      3.468
REMARK  8 active torsions:
REMARK  status: ('A' for Active; 'I' for Inactive)
REMARK    1  A    between atoms: O2_2  and  C1_10 
REMARK    2  A    between atoms: O3_3  and  C3_12 
REMARK    3  A    between atoms: O4_4  and  C2_11 
REMARK    4  A    between atoms: O5_5  and  C5_14 
REMARK    5  A    between atoms: O5_5  and  C9_18 
REMARK    6  A    between atoms: O6_6  and  N3_9 
REMARK    7  A    between atoms: C12_21  and  C14_23 
REMARK    8  A    between atoms: C13_22  and  C15_24 
ROOT
HETATM    1  N1  UNK   900      35.220 -33.484 -59.669  1.00  0.00    -0.245 NA
HETATM    2  C9  UNK   900      37.181 -35.218 -58.685  1.00  0.00     0.076 A 
HETATM    3  C10 UNK   900      37.541 -34.133 -59.476  1.00  0.00     0.071 A 
HETATM    4  C11 UNK   900      35.840 -35.436 -58.384  1.00  0.00     0.070 A 
HETATM    5  C12 UNK   900      36.532 -33.304 -59.940  1.00  0.00     0.088 A 
HETATM    6  C13 UNK   900      34.907 -34.549 -58.895  1.00  0.00     0.079 A 
ENDROOT
BRANCH   2   7
HETATM    7  O5  UNK   900      38.141 -36.066 -58.203  1.00  0.00    -0.318 OA
BRANCH   7   8
HETATM    8  C5  UNK   900      38.528 -37.148 -59.053  1.00  0.00     0.298 C 
HETATM    9  O1  UNK   900      37.807 -37.064 -60.280  1.00  0.00    -0.351 OA
HETATM   10  C4  UNK   900      38.047 -38.124 -61.212  1.00  0.00     0.152 C 
HETATM   11  C1  UNK   900      37.800 -39.505 -60.577  1.00  0.00     0.180 C 
HETATM   12  C6  UNK   900      39.420 -37.974 -61.863  1.00  0.00     0.042 C 
HETATM   13  C2  UNK   900      38.473 -39.667 -59.214  1.00  0.00     0.183 C 
HETATM   14  C3  UNK   900      38.192 -38.450 -58.328  1.00  0.00     0.207 C 
BRANCH  11  15
HETATM   15  O2  UNK   900      36.393 -39.670 -60.382  1.00  0.00    -0.385 OA
HETATM   16  C7  UNK   900      36.068 -41.018 -60.074  1.00  0.00     0.202 C 
ENDBRANCH  11  15
BRANCH  13  17
HETATM   17  O4  UNK   900      39.881 -39.814 -59.383  1.00  0.00    -0.390 OA
HETATM   18  H9  UNK   900      40.228 -38.967 -59.710  1.00  0.00     0.210 HD
ENDBRANCH  13  17
BRANCH  14  19
HETATM   19  O3  UNK   900      38.953 -38.535 -57.127  1.00  0.00    -0.383 OA
HETATM   20  C8  UNK   900      38.180 -39.072 -56.065  1.00  0.00     0.202 C 
ENDBRANCH  14  19
ENDBRANCH   7   8
ENDBRANCH   2   7
BRANCH   5  21
HETATM   21  C14 UNK   900      36.831 -32.159 -60.767  1.00  0.00     0.085 A 
HETATM   22  N2  UNK   900      36.119 -31.046 -60.478  1.00  0.00    -0.259 NA
HETATM   23  C18 UNK   900      36.376 -29.956 -61.235  1.00  0.00     0.117 A 
HETATM   24  C19 UNK   900      37.307 -29.926 -62.262  1.00  0.00     0.019 A 
HETATM   25  C17 UNK   900      38.018 -31.090 -62.528  1.00  0.00     0.004 A 
HETATM   26  C16 UNK   900      37.782 -32.232 -61.771  1.00  0.00     0.034 A 
ENDBRANCH   5  21
BRANCH   6  27
HETATM   27  C15 UNK   900      33.494 -34.730 -58.614  1.00  0.00     0.177 C 
HETATM   28  N3  UNK   900      32.996 -35.849 -58.169  1.00  0.00    -0.146 NA
BRANCH  28  29
HETATM   29  O6  UNK   900      31.616 -35.707 -58.000  1.00  0.00    -0.266 OA
HETATM   30  H23 UNK   900      31.493 -36.052 -57.099  1.00  0.00     0.247 HD
ENDBRANCH  28  29
ENDBRANCH   6  27
TORSDOF 8
ENDMDL
MODEL 4
REMARK VINA RESULT:      -5.7     32.914     34.864
REMARK  8 active torsions:
REMARK  status: ('A' for Active; 'I' for Inactive)
REMARK    1  A    between atoms: O2_2  and  C1_10 
REMARK    2  A    between atoms: O3_3  and  C3_12 
REMARK    3  A    between atoms: O4_4  and  C2_11 
REMARK    4  A    between atoms: O5_5  and  C5_14 
REMARK    5  A    between atoms: O5_5  and  C9_18 
REMARK    6  A    between atoms: O6_6  and  N3_9 
REMARK    7  A    between atoms: C12_21  and  C14_23 
REMARK    8  A    between atoms: C13_22  and  C15_24 
ROOT
HETATM    1  N1  UNK   900      17.704 -65.631 -65.953  1.00  0.00    -0.245 NA
HETATM    2  C9  UNK   900      16.819 -63.936 -67.993  1.00  0.00     0.076 A 
HETATM    3  C10 UNK   900      18.177 -64.188 -67.835  1.00  0.00     0.071 A 
HETATM    4  C11 UNK   900      15.903 -64.531 -67.133  1.00  0.00     0.070 A 
HETATM    5  C12 UNK   900      18.565 -65.035 -66.809  1.00  0.00     0.088 A 
HETATM    6  C13 UNK   900      16.391 -65.363 -66.139  1.00  0.00     0.079 A 
ENDROOT
BRANCH   2   7
HETATM    7  O5  UNK   900      16.385 -63.106 -68.992  1.00  0.00    -0.318 OA
BRANCH   7   8
HETATM    8  C5  UNK   900      17.175 -63.067 -70.183  1.00  0.00     0.298 C 
HETATM    9  O1  UNK   900      17.592 -61.726 -70.427  1.00  0.00    -0.351 OA
HETATM   10  C4  UNK   900      18.344 -61.522 -71.629  1.00  0.00     0.152 C 
HETATM   11  C1  UNK   900      17.593 -62.049 -72.866  1.00  0.00     0.180 C 
HETATM   12  C6  UNK   900      19.762 -62.069 -71.481  1.00  0.00     0.042 C 
HETATM   13  C2  UNK   900      17.037 -63.460 -72.673  1.00  0.00     0.183 C 
HETATM   14  C3  UNK   900      16.305 -63.570 -71.333  1.00  0.00     0.207 C 
BRANCH  11  15
HETATM   15  O2  UNK   900      16.484 -61.184 -73.126  1.00  0.00    -0.385 OA
HETATM   16  C7  UNK   900      16.047 -61.294 -74.472  1.00  0.00     0.202 C 
ENDBRANCH  11  15
BRANCH  13  17
HETATM   17  O4  UNK   900      18.100 -64.409 -72.711  1.00  0.00    -0.390 OA
HETATM   18  H9  UNK   900      18.643 -64.212 -73.494  1.00  0.00     0.210 HD
ENDBRANCH  13  17
BRANCH  14  19
HETATM   19  O3  UNK   900      15.934 -64.924 -71.091  1.00  0.00    -0.383 OA
HETATM   20  C8  UNK   900      14.574 -65.152 -71.424  1.00  0.00     0.202 C 
ENDBRANCH  14  19
ENDBRANCH   7   8
ENDBRANCH   2   7
BRANCH   5  21
HETATM   21  C14 UNK   900      19.958 -65.342 -66.584  1.00  0.00     0.085 A 
HETATM   22  N2  UNK   900      20.212 -66.043 -65.456  1.00  0.00    -0.259 NA
HETATM   23  C18 UNK   900      21.507 -66.347 -65.217  1.00  0.00     0.117 A 
HETATM   24  C19 UNK   900      22.555 -65.984 -66.048  1.00  0.00     0.019 A 
HETATM   25  C17 UNK   900      22.253 -65.264 -67.198  1.00  0.00     0.004 A 
HETATM   26  C16 UNK   900      20.932 -64.932 -67.479  1.00  0.00     0.034 A 
ENDBRANCH   5  21
BRANCH   6  27
HETATM   27  C15 UNK   900      15.480 -66.011 -65.211  1.00  0.00     0.177 C 
HETATM   28  N3  UNK   900      15.583 -65.894 -63.917  1.00  0.00    -0.146 NA
BRANCH  28  29
HETATM   29  O6  UNK   900      14.567 -66.631 -63.304  1.00  0.00    -0.266 OA
HETATM   30  H23 UNK   900      14.183 -65.970 -62.702  1.00  0.00     0.247 HD
ENDBRANCH  28  29
ENDBRANCH   6  27
TORSDOF 8
ENDMDL
MODEL 5
REMARK VINA RESULT:      -5.7     23.199     24.853
REMARK  8 active torsions:
REMARK  status: ('A' for Active; 'I' for Inactive)
REMARK    1  A    between atoms: O2_2  and  C1_10 
REMARK    2  A    between atoms: O3_3  and  C3_12 
REMARK    3  A    between atoms: O4_4  and  C2_11 
REMARK    4  A    between atoms: O5_5  and  C5_14 
REMARK    5  A    between atoms: O5_5  and  C9_18 
REMARK    6  A    between atoms: O6_6  and  N3_9 
REMARK    7  A    between atoms: C12_21  and  C14_23 
REMARK    8  A    between atoms: C13_22  and  C15_24 
ROOT
HETATM    1  N1  UNK   900      28.839 -19.125 -72.497  1.00  0.00    -0.245 NA
HETATM    2  C9  UNK   900      27.101 -20.297 -74.346  1.00  0.00     0.076 A 
HETATM    3  C10 UNK   900      26.639 -19.934 -73.086  1.00  0.00     0.071 A 
HETATM    4  C11 UNK   900      28.431 -20.074 -74.683  1.00  0.00     0.070 A 
HETATM    5  C12 UNK   900      27.539 -19.357 -72.205  1.00  0.00     0.088 A 
HETATM    6  C13 UNK   900      29.252 -19.490 -73.732  1.00  0.00     0.079 A 
ENDROOT
BRANCH   2   7
HETATM    7  O5  UNK   900      26.249 -20.871 -75.252  1.00  0.00    -0.318 OA
BRANCH   7   8
HETATM    8  C5  UNK   900      25.081 -21.504 -74.724  1.00  0.00     0.298 C 
HETATM    9  O1  UNK   900      25.238 -22.919 -74.799  1.00  0.00    -0.351 OA
HETATM   10  C4  UNK   900      24.113 -23.690 -74.361  1.00  0.00     0.152 C 
HETATM   11  C1  UNK   900      22.825 -23.286 -75.101  1.00  0.00     0.180 C 
HETATM   12  C6  UNK   900      23.994 -23.657 -72.839  1.00  0.00     0.042 C 
HETATM   13  C2  UNK   900      22.606 -21.773 -75.142  1.00  0.00     0.183 C 
HETATM   14  C3  UNK   900      23.889 -21.057 -75.569  1.00  0.00     0.207 C 
BRANCH  11  15
HETATM   15  O2  UNK   900      22.916 -23.742 -76.454  1.00  0.00    -0.385 OA
HETATM   16  C7  UNK   900      23.023 -25.156 -76.516  1.00  0.00     0.202 C 
ENDBRANCH  11  15
BRANCH  13  17
HETATM   17  O4  UNK   900      22.208 -21.306 -73.855  1.00  0.00    -0.390 OA
HETATM   18  H9  UNK   900      22.894 -21.574 -73.220  1.00  0.00     0.210 HD
ENDBRANCH  13  17
BRANCH  14  19
HETATM   19  O3  UNK   900      23.724 -19.647 -75.447  1.00  0.00    -0.383 OA
HETATM   20  C8  UNK   900      23.142 -19.094 -76.617  1.00  0.00     0.202 C 
ENDBRANCH  14  19
ENDBRANCH   7   8
ENDBRANCH   2   7
BRANCH   5  21
HETATM   21  C14 UNK   900      27.131 -18.956 -70.880  1.00  0.00     0.085 A 
HETATM   22  N2  UNK   900      26.125 -19.686 -70.348  1.00  0.00    -0.259 NA
HETATM   23  C18 UNK   900      25.720 -19.334 -69.107  1.00  0.00     0.117 A 
HETATM   24  C19 UNK   900      26.271 -18.293 -68.377  1.00  0.00     0.019 A 
HETATM   25  C17 UNK   900      27.303 -17.566 -68.959  1.00  0.00     0.004 A 
HETATM   26  C16 UNK   900      27.748 -17.897 -70.234  1.00  0.00     0.034 A 
ENDBRANCH   5  21
BRANCH   6  27
HETATM   27  C15 UNK   900      30.651 -19.235 -74.029  1.00  0.00     0.177 C 
HETATM   28  N3  UNK   900      31.578 -20.145 -73.920  1.00  0.00    -0.146 NA
BRANCH  28  29
HETATM   29  O6  UNK   900      32.812 -19.594 -74.273  1.00  0.00    -0.266 OA
HETATM   30  H23 UNK   900      33.392 -20.373 -74.235  1.00  0.00     0.247 HD
ENDBRANCH  28  29
ENDBRANCH   6  27
TORSDOF 8
ENDMDL
MODEL 6
REMARK VINA RESULT:      -5.6     33.772     36.372
REMARK  8 active torsions:
REMARK  status: ('A' for Active; 'I' for Inactive)
REMARK    1  A    between atoms: O2_2  and  C1_10 
REMARK    2  A    between atoms: O3_3  and  C3_12 
REMARK    3  A    between atoms: O4_4  and  C2_11 
REMARK    4  A    between atoms: O5_5  and  C5_14 
REMARK    5  A    between atoms: O5_5  and  C9_18 
REMARK    6  A    between atoms: O6_6  and  N3_9 
REMARK    7  A    between atoms: C12_21  and  C14_23 
REMARK    8  A    between atoms: C13_22  and  C15_24 
ROOT
HETATM    1  N1  UNK   900      15.318 -60.783 -74.038  1.00  0.00    -0.245 NA
HETATM    2  C9  UNK   900      15.295 -60.914 -76.831  1.00  0.00     0.076 A 
HETATM    3  C10 UNK   900      16.481 -61.114 -76.132  1.00  0.00     0.071 A 
HETATM    4  C11 UNK   900      14.121 -60.649 -76.135  1.00  0.00     0.070 A 
HETATM    5  C12 UNK   900      16.440 -61.039 -74.750  1.00  0.00     0.088 A 
HETATM    6  C13 UNK   900      14.185 -60.594 -74.752  1.00  0.00     0.079 A 
ENDROOT
BRANCH   2   7
HETATM    7  O5  UNK   900      15.284 -60.979 -78.199  1.00  0.00    -0.318 OA
BRANCH   7   8
HETATM    8  C5  UNK   900      14.844 -59.810 -78.894  1.00  0.00     0.298 C 
HETATM    9  O1  UNK   900      13.604 -60.086 -79.541  1.00  0.00    -0.351 OA
HETATM   10  C4  UNK   900      13.069 -59.019 -80.333  1.00  0.00     0.152 C 
HETATM   11  C1  UNK   900      14.085 -58.524 -81.380  1.00  0.00     0.180 C 
HETATM   12  C6  UNK   900      12.504 -57.914 -79.444  1.00  0.00     0.042 C 
HETATM   13  C2  UNK   900      15.474 -58.273 -80.795  1.00  0.00     0.183 C 
HETATM   14  C3  UNK   900      15.913 -59.454 -79.925  1.00  0.00     0.207 C 
BRANCH  11  15
HETATM   15  O2  UNK   900      14.221 -59.529 -82.390  1.00  0.00    -0.385 OA
HETATM   16  C7  UNK   900      15.044 -59.081 -83.456  1.00  0.00     0.202 C 
ENDBRANCH  11  15
BRANCH  13  17
HETATM   17  O4  UNK   900      15.461 -57.084 -80.007  1.00  0.00    -0.390 OA
HETATM   18  H9  UNK   900      14.749 -57.175 -79.351  1.00  0.00     0.210 HD
ENDBRANCH  13  17
BRANCH  14  19
HETATM   19  O3  UNK   900      17.132 -59.141 -79.257  1.00  0.00    -0.383 OA
HETATM   20  C8  UNK   900      18.248 -59.316 -80.115  1.00  0.00     0.202 C 
ENDBRANCH  14  19
ENDBRANCH   7   8
ENDBRANCH   2   7
BRANCH   5  21
HETATM   21  C14 UNK   900      17.631 -61.235 -73.958  1.00  0.00     0.085 A 
HETATM   22  N2  UNK   900      17.473 -61.031 -72.630  1.00  0.00    -0.259 NA
HETATM   23  C18 UNK   900      18.571 -61.207 -71.862  1.00  0.00     0.117 A 
HETATM   24  C19 UNK   900      19.813 -61.575 -72.355  1.00  0.00     0.019 A 
HETATM   25  C17 UNK   900      19.935 -61.775 -73.725  1.00  0.00     0.004 A 
HETATM   26  C16 UNK   900      18.828 -61.604 -74.549  1.00  0.00     0.034 A 
ENDBRANCH   5  21
BRANCH   6  27
HETATM   27  C15 UNK   900      12.989 -60.320 -73.973  1.00  0.00     0.177 C 
HETATM   28  N3  UNK   900      12.903 -59.330 -73.130  1.00  0.00    -0.146 NA
BRANCH  28  29
HETATM   29  O6  UNK   900      11.637 -59.332 -72.541  1.00  0.00    -0.266 OA
HETATM   30  H23 UNK   900      11.790 -58.793 -71.746  1.00  0.00     0.247 HD
ENDBRANCH  28  29
ENDBRANCH   6  27
TORSDOF 8
ENDMDL
MODEL 7
REMARK VINA RESULT:      -5.6     36.104     38.609
REMARK  8 active torsions:
REMARK  status: ('A' for Active; 'I' for Inactive)
REMARK    1  A    between atoms: O2_2  and  C1_10 
REMARK    2  A    between atoms: O3_3  and  C3_12 
REMARK    3  A    between atoms: O4_4  and  C2_11 
REMARK    4  A    between atoms: O5_5  and  C5_14 
REMARK    5  A    between atoms: O5_5  and  C9_18 
REMARK    6  A    between atoms: O6_6  and  N3_9 
REMARK    7  A    between atoms: C12_21  and  C14_23 
REMARK    8  A    between atoms: C13_22  and  C15_24 
ROOT
HETATM    1  N1  UNK   900      20.660 -72.203 -55.805  1.00  0.00    -0.245 NA
HETATM    2  C9  UNK   900      21.392 -72.250 -53.107  1.00  0.00     0.076 A 
HETATM    3  C10 UNK   900      20.240 -72.904 -53.530  1.00  0.00     0.071 A 
HETATM    4  C11 UNK   900      22.178 -71.573 -54.032  1.00  0.00     0.070 A 
HETATM    5  C12 UNK   900      19.920 -72.851 -54.877  1.00  0.00     0.088 A 
HETATM    6  C13 UNK   900      21.773 -71.579 -55.357  1.00  0.00     0.079 A 
ENDROOT
BRANCH   2   7
HETATM    7  O5  UNK   900      21.750 -72.274 -51.786  1.00  0.00    -0.318 OA
BRANCH   7   8
HETATM    8  C5  UNK   900      23.069 -71.824 -51.470  1.00  0.00     0.298 C 
HETATM    9  O1  UNK   900      23.876 -72.945 -51.115  1.00  0.00    -0.351 OA
HETATM   10  C4  UNK   900      25.216 -72.639 -50.711  1.00  0.00     0.152 C 
HETATM   11  C1  UNK   900      25.243 -71.616 -49.561  1.00  0.00     0.180 C 
HETATM   12  C6  UNK   900      26.069 -72.246 -51.915  1.00  0.00     0.042 C 
HETATM   13  C2  UNK   900      24.342 -70.406 -49.814  1.00  0.00     0.183 C 
HETATM   14  C3  UNK   900      22.960 -70.856 -50.293  1.00  0.00     0.207 C 
BRANCH  11  15
HETATM   15  O2  UNK   900      24.773 -72.258 -48.372  1.00  0.00    -0.385 OA
HETATM   16  C7  UNK   900      25.810 -72.388 -47.411  1.00  0.00     0.202 C 
ENDBRANCH  11  15
BRANCH  13  17
HETATM   17  O4  UNK   900      24.932 -69.560 -50.798  1.00  0.00    -0.390 OA
HETATM   18  H9  UNK   900      24.660 -68.647 -50.602  1.00  0.00     0.210 HD
ENDBRANCH  13  17
BRANCH  14  19
HETATM   19  O3  UNK   900      22.186 -69.724 -50.680  1.00  0.00    -0.383 OA
HETATM   20  C8  UNK   900      21.549 -69.130 -49.560  1.00  0.00     0.202 C 
ENDBRANCH  14  19
ENDBRANCH   7   8
ENDBRANCH   2   7
BRANCH   5  21
HETATM   21  C14 UNK   900      18.740 -73.506 -55.388  1.00  0.00     0.085 A 
HETATM   22  N2  UNK   900      18.866 -74.019 -56.633  1.00  0.00    -0.259 NA
HETATM   23  C18 UNK   900      17.778 -74.638 -57.140  1.00  0.00     0.117 A 
HETATM   24  C19 UNK   900      16.574 -74.770 -56.465  1.00  0.00     0.019 A 
HETATM   25  C17 UNK   900      16.484 -74.229 -55.188  1.00  0.00     0.004 A 
HETATM   26  C16 UNK   900      17.582 -73.584 -54.631  1.00  0.00     0.034 A 
ENDBRANCH   5  21
BRANCH   6  27
HETATM   27  C15 UNK   900      22.556 -70.886 -56.366  1.00  0.00     0.177 C 
HETATM   28  N3  UNK   900      22.095 -69.882 -57.057  1.00  0.00    -0.146 NA
BRANCH  28  29
HETATM   29  O6  UNK   900      23.081 -69.437 -57.941  1.00  0.00    -0.266 OA
HETATM   30  H23 UNK   900      23.677 -70.205 -57.971  1.00  0.00     0.247 HD
ENDBRANCH  28  29
ENDBRANCH   6  27
TORSDOF 8
ENDMDL
MODEL 8
REMARK VINA RESULT:      -5.4      5.973      9.247
REMARK  8 active torsions:
REMARK  status: ('A' for Active; 'I' for Inactive)
REMARK    1  A    between atoms: O2_2  and  C1_10 
REMARK    2  A    between atoms: O3_3  and  C3_12 
REMARK    3  A    between atoms: O4_4  and  C2_11 
REMARK    4  A    between atoms: O5_5  and  C5_14 
REMARK    5  A    between atoms: O5_5  and  C9_18 
REMARK    6  A    between atoms: O6_6  and  N3_9 
REMARK    7  A    between atoms: C12_21  and  C14_23 
REMARK    8  A    between atoms: C13_22  and  C15_24 
ROOT
HETATM    1  N1  UNK   900      40.214 -30.134 -63.911  1.00  0.00    -0.245 NA
HETATM    2  C9  UNK   900      38.013 -30.609 -62.254  1.00  0.00     0.076 A 
HETATM    3  C10 UNK   900      39.131 -31.432 -62.183  1.00  0.00     0.071 A 
HETATM    4  C11 UNK   900      37.995 -29.547 -63.152  1.00  0.00     0.070 A 
HETATM    5  C12 UNK   900      40.196 -31.156 -63.025  1.00  0.00     0.088 A 
HETATM    6  C13 UNK   900      39.110 -29.354 -63.951  1.00  0.00     0.079 A 
ENDROOT
BRANCH   2   7
HETATM    7  O5  UNK   900      36.935 -30.841 -61.442  1.00  0.00    -0.318 OA
BRANCH   7   8
HETATM    8  C5  UNK   900      37.001 -31.996 -60.602  1.00  0.00     0.298 C 
HETATM    9  O1  UNK   900      36.363 -33.091 -61.257  1.00  0.00    -0.351 OA
HETATM   10  C4  UNK   900      36.296 -34.307 -60.504  1.00  0.00     0.152 C 
HETATM   11  C1  UNK   900      35.637 -34.089 -59.130  1.00  0.00     0.180 C 
HETATM   12  C6  UNK   900      37.665 -34.980 -60.438  1.00  0.00     0.042 C 
HETATM   13  C2  UNK   900      36.202 -32.884 -58.378  1.00  0.00     0.183 C 
HETATM   14  C3  UNK   900      36.277 -31.663 -59.299  1.00  0.00     0.207 C 
BRANCH  11  15
HETATM   15  O2  UNK   900      34.240 -33.852 -59.329  1.00  0.00    -0.385 OA
HETATM   16  C7  UNK   900      33.486 -34.212 -58.182  1.00  0.00     0.202 C 
ENDBRANCH  11  15
BRANCH  13  17
HETATM   17  O4  UNK   900      37.505 -33.187 -57.886  1.00  0.00    -0.390 OA
HETATM   18  H9  UNK   900      37.826 -32.407 -57.402  1.00  0.00     0.210 HD
ENDBRANCH  13  17
BRANCH  14  19
HETATM   19  O3  UNK   900      36.953 -30.596 -58.640  1.00  0.00    -0.383 OA
HETATM   20  C8  UNK   900      36.192 -29.399 -58.686  1.00  0.00     0.202 C 
ENDBRANCH  14  19
ENDBRANCH   7   8
ENDBRANCH   2   7
BRANCH   5  21
HETATM   21  C14 UNK   900      41.389 -31.968 -63.008  1.00  0.00     0.085 A 
HETATM   22  N2  UNK   900      42.428 -31.471 -63.717  1.00  0.00    -0.259 NA
HETATM   23  C18 UNK   900      43.560 -32.209 -63.720  1.00  0.00     0.117 A 
HETATM   24  C19 UNK   900      43.703 -33.415 -63.052  1.00  0.00     0.019 A 
HETATM   25  C17 UNK   900      42.612 -33.893 -62.335  1.00  0.00     0.004 A 
HETATM   26  C16 UNK   900      41.429 -33.162 -62.307  1.00  0.00     0.034 A 
ENDBRANCH   5  21
BRANCH   6  27
HETATM   27  C15 UNK   900      39.146 -28.261 -64.908  1.00  0.00     0.177 C 
HETATM   28  N3  UNK   900      39.070 -28.443 -66.196  1.00  0.00    -0.146 NA
BRANCH  28  29
HETATM   29  O6  UNK   900      39.133 -27.206 -66.842  1.00  0.00    -0.266 OA
HETATM   30  H23 UNK   900      39.693 -27.415 -67.609  1.00  0.00     0.247 HD
ENDBRANCH  28  29
ENDBRANCH   6  27
TORSDOF 8
ENDMDL
MODEL 9
REMARK VINA RESULT:      -5.3     36.548     40.123
REMARK  8 active torsions:
REMARK  status: ('A' for Active; 'I' for Inactive)
REMARK    1  A    between atoms: O2_2  and  C1_10 
REMARK    2  A    between atoms: O3_3  and  C3_12 
REMARK    3  A    between atoms: O4_4  and  C2_11 
REMARK    4  A    between atoms: O5_5  and  C5_14 
REMARK    5  A    between atoms: O5_5  and  C9_18 
REMARK    6  A    between atoms: O6_6  and  N3_9 
REMARK    7  A    between atoms: C12_21  and  C14_23 
REMARK    8  A    between atoms: C13_22  and  C15_24 
ROOT
HETATM    1  N1  UNK   900      22.021 -71.019 -54.041  1.00  0.00    -0.245 NA
HETATM    2  C9  UNK   900      19.591 -72.159 -54.822  1.00  0.00     0.076 A 
HETATM    3  C10 UNK   900      19.920 -72.073 -53.474  1.00  0.00     0.071 A 
HETATM    4  C11 UNK   900      20.475 -71.675 -55.780  1.00  0.00     0.070 A 
HETATM    5  C12 UNK   900      21.136 -71.500 -53.138  1.00  0.00     0.088 A 
HETATM    6  C13 UNK   900      21.666 -71.120 -55.342  1.00  0.00     0.079 A 
ENDROOT
BRANCH   2   7
HETATM    7  O5  UNK   900      18.400 -72.717 -55.205  1.00  0.00    -0.318 OA
BRANCH   7   8
HETATM    8  C5  UNK   900      18.037 -73.949 -54.578  1.00  0.00     0.298 C 
HETATM    9  O1  UNK   900      18.102 -75.002 -55.537  1.00  0.00    -0.351 OA
HETATM   10  C4  UNK   900      17.703 -76.294 -55.065  1.00  0.00     0.152 C 
HETATM   11  C1  UNK   900      16.292 -76.262 -54.448  1.00  0.00     0.180 C 
HETATM   12  C6  UNK   900      18.769 -76.891 -54.150  1.00  0.00     0.042 C 
HETATM   13  C2  UNK   900      16.097 -75.113 -53.458  1.00  0.00     0.183 C 
HETATM   14  C3  UNK   900      16.611 -73.799 -54.051  1.00  0.00     0.207 C 
BRANCH  11  15
HETATM   15  O2  UNK   900      15.340 -76.085 -55.501  1.00  0.00    -0.385 OA
HETATM   16  C7  UNK   900      15.368 -77.174 -56.411  1.00  0.00     0.202 C 
ENDBRANCH  11  15
BRANCH  13  17
HETATM   17  O4  UNK   900      16.798 -75.392 -52.248  1.00  0.00    -0.390 OA
HETATM   18  H9  UNK   900      17.720 -75.108 -52.370  1.00  0.00     0.210 HD
ENDBRANCH  13  17
BRANCH  14  19
HETATM   19  O3  UNK   900      16.575 -72.772 -53.065  1.00  0.00    -0.383 OA
HETATM   20  C8  UNK   900      15.555 -71.827 -53.344  1.00  0.00     0.202 C 
ENDBRANCH  14  19
ENDBRANCH   7   8
ENDBRANCH   2   7
BRANCH   5  21
HETATM   21  C14 UNK   900      21.545 -71.377 -51.759  1.00  0.00     0.085 A 
HETATM   22  N2  UNK   900      22.883 -71.390 -51.558  1.00  0.00    -0.259 NA
HETATM   23  C18 UNK   900      23.298 -71.277 -50.277  1.00  0.00     0.117 A 
HETATM   24  C19 UNK   900      22.444 -71.152 -49.192  1.00  0.00     0.019 A 
HETATM   25  C17 UNK   900      21.076 -71.144 -49.440  1.00  0.00     0.004 A 
HETATM   26  C16 UNK   900      20.610 -71.257 -50.745  1.00  0.00     0.034 A 
ENDBRANCH   5  21
BRANCH   6  27
HETATM   27  C15 UNK   900      22.628 -70.600 -56.299  1.00  0.00     0.177 C 
HETATM   28  N3  UNK   900      22.284 -69.895 -57.340  1.00  0.00    -0.146 NA
BRANCH  28  29
HETATM   29  O6  UNK   900      23.428 -69.546 -58.061  1.00  0.00    -0.266 OA
HETATM   30  H23 UNK   900      24.130 -69.727 -57.413  1.00  0.00     0.247 HD
ENDBRANCH  28  29
ENDBRANCH   6  27
TORSDOF 8
ENDMDL
