MODEL 1
REMARK VINA RESULT:      -6.0      0.000      0.000
REMARK  9 active torsions:
REMARK  status: ('A' for Active; 'I' for Inactive)
REMARK    1  A    between atoms: S1_1  and  C7_16 
REMARK    2  A    between atoms: O3_4  and  C8_17 
REMARK    3  A    between atoms: O7_8  and  C18_27 
REMARK    4  A    between atoms: N1_9  and  C1_10 
REMARK       I    between atoms: N1_9  and  C9_18 
REMARK    5  A    between atoms: C1_10  and  C2_11 
REMARK    6  A    between atoms: C1_10  and  C3_12 
REMARK    7  A    between atoms: C3_12  and  C4_13 
REMARK    8  A    between atoms: C6_15  and  C8_17 
REMARK    9  A    between atoms: C8_17  and  C9_18 
ROOT
HETATM    1  C1  UNK   900       6.517 -50.148 -76.380  1.00  0.00     0.114 C 
ENDROOT
BRANCH   1   2
HETATM    2  N1  UNK   900       6.448 -48.705 -76.364  1.00  0.00    -0.352 N 
HETATM    3  C9  UNK   900       5.330 -48.004 -76.789  1.00  0.00     0.249 C 
HETATM    4  O4  UNK   900       4.295 -48.514 -77.214  1.00  0.00    -0.271 OA
HETATM    5  H9  UNK   900       7.260 -48.194 -76.034  1.00  0.00     0.163 HD
BRANCH   3   6
HETATM    6  C8  UNK   900       5.501 -46.497 -76.650  1.00  0.00     0.240 C 
BRANCH   6   7
HETATM    7  O3  UNK   900       4.947 -45.858 -77.787  1.00  0.00    -0.383 OA
HETATM    8  H21 UNK   900       4.985 -46.482 -78.533  1.00  0.00     0.210 HD
ENDBRANCH   6   7
BRANCH   6   9
HETATM    9  C6  UNK   900       4.781 -45.974 -75.411  1.00  0.00     0.184 C 
HETATM   10  O2  UNK   900       5.070 -46.851 -74.309  1.00  0.00    -0.312 OA
HETATM   11  C15 UNK   900       6.041 -46.307 -73.513  1.00  0.00     0.260 C 
HETATM   12  O5  UNK   900       6.531 -46.860 -72.541  1.00  0.00    -0.265 OA
HETATM   13  C11 UNK   900       6.432 -44.956 -74.037  1.00  0.00     0.129 C 
HETATM   14  C7  UNK   900       5.286 -44.609 -74.968  1.00  0.00     0.088 C 
BRANCH  14  15
HETATM   15  S1  UNK   900       3.975 -43.702 -74.065  1.00  0.00    -0.166 SA
HETATM   16  C21 UNK   900       2.556 -44.358 -74.968  1.00  0.00     0.090 C 
ENDBRANCH  14  15
ENDBRANCH   6   9
ENDBRANCH   3   6
ENDBRANCH   1   2
BRANCH   1  17
HETATM   17  C2  UNK   900       7.330 -50.638 -75.190  1.00  0.00     0.159 C 
HETATM   18  O1  UNK   900       8.392 -51.476 -75.702  1.00  0.00    -0.309 OA
HETATM   19  C16 UNK   900       9.387 -51.910 -74.882  1.00  0.00     0.297 C 
HETATM   20  O6  UNK   900      10.173 -52.786 -75.215  1.00  0.00    -0.259 OA
HETATM   21  C14 UNK   900       9.488 -51.238 -73.565  1.00  0.00     0.079 A 
HETATM   22  C10 UNK   900       8.787 -50.049 -73.324  1.00  0.00    -0.037 A 
HETATM   23  C18 UNK   900      10.320 -51.777 -72.578  1.00  0.00     0.082 A 
HETATM   24  C5  UNK   900       7.922 -49.476 -74.405  1.00  0.00     0.074 C 
HETATM   25  C17 UNK   900       8.939 -49.396 -72.097  1.00  0.00     0.008 A 
HETATM   26  C19 UNK   900       9.765 -49.937 -71.111  1.00  0.00     0.003 A 
HETATM   27  C20 UNK   900      10.452 -51.126 -71.351  1.00  0.00     0.037 A 
BRANCH  23  28
HETATM   28  O7  UNK   900      11.012 -52.938 -72.754  1.00  0.00    -0.360 OA
HETATM   29  H27 UNK   900      11.957 -52.752 -72.877  1.00  0.00     0.217 HD
ENDBRANCH  23  28
ENDBRANCH   1  17
BRANCH   1  30
HETATM   30  C3  UNK   900       7.115 -50.664 -77.700  1.00  0.00     0.031 C 
BRANCH  30  31
HETATM   31  C4  UNK   900       6.181 -51.565 -78.536  1.00  0.00    -0.021 C 
HETATM   32  C12 UNK   900       6.856 -52.867 -78.967  1.00  0.00     0.009 C 
HETATM   33  C13 UNK   900       5.700 -50.801 -79.773  1.00  0.00     0.009 C 
ENDBRANCH  30  31
ENDBRANCH   1  30
TORSDOF 9
ENDMDL
MODEL 2
REMARK VINA RESULT:      -5.8     36.151     37.688
REMARK  9 active torsions:
REMARK  status: ('A' for Active; 'I' for Inactive)
REMARK    1  A    between atoms: S1_1  and  C7_16 
REMARK    2  A    between atoms: O3_4  and  C8_17 
REMARK    3  A    between atoms: O7_8  and  C18_27 
REMARK    4  A    between atoms: N1_9  and  C1_10 
REMARK       I    between atoms: N1_9  and  C9_18 
REMARK    5  A    between atoms: C1_10  and  C2_11 
REMARK    6  A    between atoms: C1_10  and  C3_12 
REMARK    7  A    between atoms: C3_12  and  C4_13 
REMARK    8  A    between atoms: C6_15  and  C8_17 
REMARK    9  A    between atoms: C8_17  and  C9_18 
ROOT
HETATM    1  C1  UNK   900      24.445 -23.329 -54.860  1.00  0.00     0.114 C 
ENDROOT
BRANCH   1   2
HETATM    2  N1  UNK   900      25.473 -22.945 -55.801  1.00  0.00    -0.352 N 
HETATM    3  C9  UNK   900      26.132 -21.727 -55.735  1.00  0.00     0.249 C 
HETATM    4  O4  UNK   900      25.926 -20.858 -54.891  1.00  0.00    -0.271 OA
HETATM    5  H9  UNK   900      25.707 -23.599 -56.541  1.00  0.00     0.163 HD
BRANCH   3   6
HETATM    6  C8  UNK   900      27.185 -21.576 -56.825  1.00  0.00     0.240 C 
BRANCH   6   7
HETATM    7  O3  UNK   900      27.678 -20.248 -56.816  1.00  0.00    -0.383 OA
HETATM    8  H21 UNK   900      26.997 -19.675 -56.422  1.00  0.00     0.210 HD
ENDBRANCH   6   7
BRANCH   6   9
HETATM    9  C6  UNK   900      28.358 -22.523 -56.591  1.00  0.00     0.184 C 
HETATM   10  O2  UNK   900      28.073 -23.773 -57.241  1.00  0.00    -0.312 OA
HETATM   11  C15 UNK   900      28.738 -23.849 -58.434  1.00  0.00     0.260 C 
HETATM   12  O5  UNK   900      28.633 -24.769 -59.230  1.00  0.00    -0.265 OA
HETATM   13  C11 UNK   900      29.578 -22.620 -58.628  1.00  0.00     0.129 C 
HETATM   14  C7  UNK   900      29.647 -22.033 -57.231  1.00  0.00     0.088 C 
BRANCH  14  15
HETATM   15  S1  UNK   900      31.102 -22.688 -56.329  1.00  0.00    -0.166 SA
HETATM   16  C21 UNK   900      30.441 -22.539 -54.656  1.00  0.00     0.090 C 
ENDBRANCH  14  15
ENDBRANCH   6   9
ENDBRANCH   3   6
ENDBRANCH   1   2
BRANCH   1  17
HETATM   17  C2  UNK   900      24.743 -24.715 -54.307  1.00  0.00     0.159 C 
HETATM   18  O1  UNK   900      26.168 -24.796 -54.076  1.00  0.00    -0.309 OA
HETATM   19  C16 UNK   900      26.702 -25.858 -53.415  1.00  0.00     0.297 C 
HETATM   20  O6  UNK   900      27.906 -26.075 -53.390  1.00  0.00    -0.259 OA
HETATM   21  C14 UNK   900      25.743 -26.729 -52.694  1.00  0.00     0.079 A 
HETATM   22  C10 UNK   900      24.426 -26.302 -52.481  1.00  0.00    -0.037 A 
HETATM   23  C18 UNK   900      26.174 -27.962 -52.193  1.00  0.00     0.082 A 
HETATM   24  C5  UNK   900      23.994 -24.966 -53.006  1.00  0.00     0.074 C 
HETATM   25  C17 UNK   900      23.550 -27.109 -51.749  1.00  0.00     0.008 A 
HETATM   26  C19 UNK   900      23.979 -28.340 -51.253  1.00  0.00     0.003 A 
HETATM   27  C20 UNK   900      25.287 -28.766 -51.477  1.00  0.00     0.037 A 
BRANCH  23  28
HETATM   28  O7  UNK   900      27.439 -28.431 -52.383  1.00  0.00    -0.360 OA
HETATM   29  H27 UNK   900      27.507 -28.882 -53.239  1.00  0.00     0.217 HD
ENDBRANCH  23  28
ENDBRANCH   1  17
BRANCH   1  30
HETATM   30  C3  UNK   900      23.050 -23.289 -55.511  1.00  0.00     0.031 C 
BRANCH  30  31
HETATM   31  C4  UNK   900      22.191 -22.060 -55.145  1.00  0.00    -0.021 C 
HETATM   32  C12 UNK   900      22.559 -21.474 -53.782  1.00  0.00     0.009 C 
HETATM   33  C13 UNK   900      20.709 -22.447 -55.155  1.00  0.00     0.009 C 
ENDBRANCH  30  31
ENDBRANCH   1  30
TORSDOF 9
ENDMDL
MODEL 3
REMARK VINA RESULT:      -5.7     18.507     22.397
REMARK  9 active torsions:
REMARK  status: ('A' for Active; 'I' for Inactive)
REMARK    1  A    between atoms: S1_1  and  C7_16 
REMARK    2  A    between atoms: O3_4  and  C8_17 
REMARK    3  A    between atoms: O7_8  and  C18_27 
REMARK    4  A    between atoms: N1_9  and  C1_10 
REMARK       I    between atoms: N1_9  and  C9_18 
REMARK    5  A    between atoms: C1_10  and  C2_11 
REMARK    6  A    between atoms: C1_10  and  C3_12 
REMARK    7  A    between atoms: C3_12  and  C4_13 
REMARK    8  A    between atoms: C6_15  and  C8_17 
REMARK    9  A    between atoms: C8_17  and  C9_18 
ROOT
HETATM    1  C1  UNK   900      10.136 -28.929 -78.652  1.00  0.00     0.114 C 
ENDROOT
BRANCH   1   2
HETATM    2  N1  UNK   900      10.048 -28.604 -77.246  1.00  0.00    -0.352 N 
HETATM    3  C9  UNK   900      11.076 -28.860 -76.352  1.00  0.00     0.249 C 
HETATM    4  O4  UNK   900      12.153 -29.377 -76.643  1.00  0.00    -0.271 OA
HETATM    5  H9  UNK   900       9.189 -28.179 -76.910  1.00  0.00     0.163 HD
BRANCH   3   6
HETATM    6  C8  UNK   900      10.743 -28.403 -74.938  1.00  0.00     0.240 C 
BRANCH   6   7
HETATM    7  O3  UNK   900      10.565 -26.997 -74.932  1.00  0.00    -0.383 OA
HETATM    8  H21 UNK   900       9.667 -26.805 -75.256  1.00  0.00     0.210 HD
ENDBRANCH   6   7
BRANCH   6   9
HETATM    9  C6  UNK   900       9.455 -29.050 -74.439  1.00  0.00     0.184 C 
HETATM   10  O2  UNK   900       9.377 -30.383 -74.973  1.00  0.00    -0.312 OA
HETATM   11  C15 UNK   900       9.756 -31.295 -74.025  1.00  0.00     0.260 C 
HETATM   12  O5  UNK   900       9.849 -32.496 -74.217  1.00  0.00    -0.265 OA
HETATM   13  C11 UNK   900      10.073 -30.590 -72.738  1.00  0.00     0.129 C 
HETATM   14  C7  UNK   900       9.431 -29.229 -72.930  1.00  0.00     0.088 C 
BRANCH  14  15
HETATM   15  S1  UNK   900       7.706 -29.239 -72.312  1.00  0.00    -0.166 SA
HETATM   16  C21 UNK   900       7.243 -27.579 -72.849  1.00  0.00     0.090 C 
ENDBRANCH  14  15
ENDBRANCH   6   9
ENDBRANCH   3   6
ENDBRANCH   1   2
BRANCH   1  17
HETATM   17  C2  UNK   900      10.991 -27.893 -79.367  1.00  0.00     0.159 C 
HETATM   18  O1  UNK   900      10.789 -28.065 -80.789  1.00  0.00    -0.309 OA
HETATM   19  C16 UNK   900      11.288 -27.159 -81.673  1.00  0.00     0.297 C 
HETATM   20  O6  UNK   900      11.330 -27.376 -82.877  1.00  0.00    -0.259 OA
HETATM   21  C14 UNK   900      11.752 -25.874 -81.100  1.00  0.00     0.079 A 
HETATM   22  C10 UNK   900      11.420 -25.527 -79.784  1.00  0.00    -0.037 A 
HETATM   23  C18 UNK   900      12.490 -24.991 -81.896  1.00  0.00     0.082 A 
HETATM   24  C5  UNK   900      10.607 -26.478 -78.958  1.00  0.00     0.074 C 
HETATM   25  C17 UNK   900      11.815 -24.286 -79.278  1.00  0.00     0.008 A 
HETATM   26  C19 UNK   900      12.556 -23.408 -80.071  1.00  0.00     0.003 A 
HETATM   27  C20 UNK   900      12.894 -23.762 -81.376  1.00  0.00     0.037 A 
BRANCH  23  28
HETATM   28  O7  UNK   900      12.852 -25.285 -83.177  1.00  0.00    -0.360 OA
HETATM   29  H27 UNK   900      13.357 -24.551 -83.562  1.00  0.00     0.217 HD
ENDBRANCH  23  28
ENDBRANCH   1  17
BRANCH   1  30
HETATM   30  C3  UNK   900       8.740 -29.021 -79.292  1.00  0.00     0.031 C 
BRANCH  30  31
HETATM   31  C4  UNK   900       7.567 -28.631 -78.368  1.00  0.00    -0.021 C 
HETATM   32  C12 UNK   900       6.664 -29.819 -78.036  1.00  0.00     0.009 C 
HETATM   33  C13 UNK   900       6.739 -27.523 -79.026  1.00  0.00     0.009 C 
ENDBRANCH  30  31
ENDBRANCH   1  30
TORSDOF 9
ENDMDL
MODEL 4
REMARK VINA RESULT:      -5.5     18.981     22.587
REMARK  9 active torsions:
REMARK  status: ('A' for Active; 'I' for Inactive)
REMARK    1  A    between atoms: S1_1  and  C7_16 
REMARK    2  A    between atoms: O3_4  and  C8_17 
REMARK    3  A    between atoms: O7_8  and  C18_27 
REMARK    4  A    between atoms: N1_9  and  C1_10 
REMARK       I    between atoms: N1_9  and  C9_18 
REMARK    5  A    between atoms: C1_10  and  C2_11 
REMARK    6  A    between atoms: C1_10  and  C3_12 
REMARK    7  A    between atoms: C3_12  and  C4_13 
REMARK    8  A    between atoms: C6_15  and  C8_17 
REMARK    9  A    between atoms: C8_17  and  C9_18 
ROOT
HETATM    1  C1  UNK   900       9.358 -28.855 -78.977  1.00  0.00     0.114 C 
ENDROOT
BRANCH   1   2
HETATM    2  N1  UNK   900       9.795 -28.692 -77.609  1.00  0.00    -0.352 N 
HETATM    3  C9  UNK   900      11.073 -29.024 -77.187  1.00  0.00     0.249 C 
HETATM    4  O4  UNK   900      11.959 -29.481 -77.907  1.00  0.00    -0.271 OA
HETATM    5  H9  UNK   900       9.128 -28.326 -76.938  1.00  0.00     0.163 HD
BRANCH   3   6
HETATM    6  C8  UNK   900      11.289 -28.736 -75.707  1.00  0.00     0.240 C 
BRANCH   6   7
HETATM    7  O3  UNK   900      10.720 -27.477 -75.389  1.00  0.00    -0.383 OA
HETATM    8  H21 UNK   900      11.335 -26.784 -75.685  1.00  0.00     0.210 HD
ENDBRANCH   6   7
BRANCH   6   9
HETATM    9  C6  UNK   900      10.621 -29.795 -74.837  1.00  0.00     0.184 C 
HETATM   10  O2  UNK   900      11.554 -30.869 -74.626  1.00  0.00    -0.312 OA
HETATM   11  C15 UNK   900      12.131 -30.758 -73.390  1.00  0.00     0.260 C 
HETATM   12  O5  UNK   900      13.008 -31.493 -72.965  1.00  0.00    -0.265 OA
HETATM   13  C11 UNK   900      11.550 -29.582 -72.660  1.00  0.00     0.129 C 
HETATM   14  C7  UNK   900      10.285 -29.288 -73.444  1.00  0.00     0.088 C 
BRANCH  14  15
HETATM   15  S1  UNK   900       8.866 -30.216 -72.747  1.00  0.00    -0.166 SA
HETATM   16  C21 UNK   900       7.993 -30.529 -74.296  1.00  0.00     0.090 C 
ENDBRANCH  14  15
ENDBRANCH   6   9
ENDBRANCH   3   6
ENDBRANCH   1   2
BRANCH   1  17
HETATM   17  C2  UNK   900       9.650 -27.587 -79.766  1.00  0.00     0.159 C 
HETATM   18  O1  UNK   900       9.886 -26.524 -78.815  1.00  0.00    -0.309 OA
HETATM   19  C16 UNK   900      10.348 -25.314 -79.231  1.00  0.00     0.297 C 
HETATM   20  O6  UNK   900      10.353 -24.331 -78.503  1.00  0.00    -0.259 OA
HETATM   21  C14 UNK   900      10.879 -25.257 -80.614  1.00  0.00     0.079 A 
HETATM   22  C10 UNK   900      11.145 -26.440 -81.316  1.00  0.00    -0.037 A 
HETATM   23  C18 UNK   900      11.151 -24.015 -81.197  1.00  0.00     0.082 A 
HETATM   24  C5  UNK   900      10.869 -27.760 -80.661  1.00  0.00     0.074 C 
HETATM   25  C17 UNK   900      11.701 -26.370 -82.597  1.00  0.00     0.008 A 
HETATM   26  C19 UNK   900      11.967 -25.131 -83.180  1.00  0.00     0.003 A 
HETATM   27  C20 UNK   900      11.690 -23.956 -82.482  1.00  0.00     0.037 A 
BRANCH  23  28
HETATM   28  O7  UNK   900      10.898 -22.835 -80.564  1.00  0.00    -0.360 OA
HETATM   29  H27 UNK   900      10.968 -22.946 -79.603  1.00  0.00     0.217 HD
ENDBRANCH  23  28
ENDBRANCH   1  17
BRANCH   1  30
HETATM   30  C3  UNK   900       7.861 -29.209 -79.046  1.00  0.00     0.031 C 
BRANCH  30  31
HETATM   31  C4  UNK   900       7.008 -28.681 -77.873  1.00  0.00    -0.021 C 
HETATM   32  C12 UNK   900       6.053 -29.740 -77.322  1.00  0.00     0.009 C 
HETATM   33  C13 UNK   900       6.210 -27.455 -78.327  1.00  0.00     0.009 C 
ENDBRANCH  30  31
ENDBRANCH   1  30
TORSDOF 9
ENDMDL
MODEL 5
REMARK VINA RESULT:      -5.3     24.666     28.319
REMARK  9 active torsions:
REMARK  status: ('A' for Active; 'I' for Inactive)
REMARK    1  A    between atoms: S1_1  and  C7_16 
REMARK    2  A    between atoms: O3_4  and  C8_17 
REMARK    3  A    between atoms: O7_8  and  C18_27 
REMARK    4  A    between atoms: N1_9  and  C1_10 
REMARK       I    between atoms: N1_9  and  C9_18 
REMARK    5  A    between atoms: C1_10  and  C2_11 
REMARK    6  A    between atoms: C1_10  and  C3_12 
REMARK    7  A    between atoms: C3_12  and  C4_13 
REMARK    8  A    between atoms: C6_15  and  C8_17 
REMARK    9  A    between atoms: C8_17  and  C9_18 
ROOT
HETATM    1  C1  UNK   900      10.759 -27.684 -56.128  1.00  0.00     0.114 C 
ENDROOT
BRANCH   1   2
HETATM    2  N1  UNK   900       9.971 -28.471 -57.049  1.00  0.00    -0.352 N 
HETATM    3  C9  UNK   900       8.679 -28.885 -56.764  1.00  0.00     0.249 C 
HETATM    4  O4  UNK   900       8.070 -28.637 -55.726  1.00  0.00    -0.271 OA
HETATM    5  H9  UNK   900      10.395 -28.732 -57.933  1.00  0.00     0.163 HD
BRANCH   3   6
HETATM    6  C8  UNK   900       8.059 -29.680 -57.905  1.00  0.00     0.240 C 
BRANCH   6   7
HETATM    7  O3  UNK   900       8.085 -28.897 -59.086  1.00  0.00    -0.383 OA
HETATM    8  H21 UNK   900       8.347 -27.992 -58.844  1.00  0.00     0.210 HD
ENDBRANCH   6   7
BRANCH   6   9
HETATM    9  C6  UNK   900       8.837 -30.965 -58.168  1.00  0.00     0.184 C 
HETATM   10  O2  UNK   900       9.478 -31.369 -56.946  1.00  0.00    -0.312 OA
HETATM   11  C15 UNK   900       8.764 -32.370 -56.345  1.00  0.00     0.260 C 
HETATM   12  O5  UNK   900       9.037 -32.863 -55.263  1.00  0.00    -0.265 OA
HETATM   13  C11 UNK   900       7.585 -32.737 -57.199  1.00  0.00     0.129 C 
HETATM   14  C7  UNK   900       7.939 -32.132 -58.544  1.00  0.00     0.088 C 
BRANCH  14  15
HETATM   15  S1  UNK   900       8.854 -33.342 -59.572  1.00  0.00    -0.166 SA
HETATM   16  C21 UNK   900       9.902 -32.169 -60.457  1.00  0.00     0.090 C 
ENDBRANCH  14  15
ENDBRANCH   6   9
ENDBRANCH   3   6
ENDBRANCH   1   2
BRANCH   1  17
HETATM   17  C2  UNK   900      11.852 -26.944 -56.886  1.00  0.00     0.159 C 
HETATM   18  O1  UNK   900      12.673 -26.259 -55.913  1.00  0.00    -0.309 OA
HETATM   19  C16 UNK   900      13.836 -25.661 -56.288  1.00  0.00     0.297 C 
HETATM   20  O6  UNK   900      14.443 -24.894 -55.552  1.00  0.00    -0.259 OA
HETATM   21  C14 UNK   900      14.349 -26.014 -57.633  1.00  0.00     0.079 A 
HETATM   22  C10 UNK   900      13.814 -27.107 -58.326  1.00  0.00    -0.037 A 
HETATM   23  C18 UNK   900      15.398 -25.272 -58.187  1.00  0.00     0.082 A 
HETATM   24  C5  UNK   900      12.708 -27.902 -57.702  1.00  0.00     0.074 C 
HETATM   25  C17 UNK   900      14.349 -27.463 -59.568  1.00  0.00     0.008 A 
HETATM   26  C19 UNK   900      15.392 -26.720 -60.123  1.00  0.00     0.003 A 
HETATM   27  C20 UNK   900      15.913 -25.626 -59.434  1.00  0.00     0.037 A 
BRANCH  23  28
HETATM   28  O7  UNK   900      15.944 -24.192 -57.561  1.00  0.00    -0.360 OA
HETATM   29  H27 UNK   900      16.484 -24.476 -56.808  1.00  0.00     0.217 HD
ENDBRANCH  23  28
ENDBRANCH   1  17
BRANCH   1  30
HETATM   30  C3  UNK   900      11.365 -28.563 -55.018  1.00  0.00     0.031 C 
BRANCH  30  31
HETATM   31  C4  UNK   900      10.830 -28.286 -53.597  1.00  0.00    -0.021 C 
HETATM   32  C12 UNK   900      10.194 -26.902 -53.471  1.00  0.00     0.009 C 
HETATM   33  C13 UNK   900      11.968 -28.424 -52.582  1.00  0.00     0.009 C 
ENDBRANCH  30  31
ENDBRANCH   1  30
TORSDOF 9
ENDMDL
MODEL 6
REMARK VINA RESULT:      -5.2     20.370     23.368
REMARK  9 active torsions:
REMARK  status: ('A' for Active; 'I' for Inactive)
REMARK    1  A    between atoms: S1_1  and  C7_16 
REMARK    2  A    between atoms: O3_4  and  C8_17 
REMARK    3  A    between atoms: O7_8  and  C18_27 
REMARK    4  A    between atoms: N1_9  and  C1_10 
REMARK       I    between atoms: N1_9  and  C9_18 
REMARK    5  A    between atoms: C1_10  and  C2_11 
REMARK    6  A    between atoms: C1_10  and  C3_12 
REMARK    7  A    between atoms: C3_12  and  C4_13 
REMARK    8  A    between atoms: C6_15  and  C8_17 
REMARK    9  A    between atoms: C8_17  and  C9_18 
ROOT
HETATM    1  C1  UNK   900      10.604 -28.195 -77.995  1.00  0.00     0.114 C 
ENDROOT
BRANCH   1   2
HETATM    2  N1  UNK   900      10.015 -27.427 -76.922  1.00  0.00    -0.352 N 
HETATM    3  C9  UNK   900      10.467 -27.501 -75.613  1.00  0.00     0.249 C 
HETATM    4  O4  UNK   900      11.396 -28.206 -75.225  1.00  0.00    -0.271 OA
HETATM    5  H9  UNK   900       9.234 -26.819 -77.146  1.00  0.00     0.163 HD
BRANCH   3   6
HETATM    6  C8  UNK   900       9.696 -26.578 -74.679  1.00  0.00     0.240 C 
BRANCH   6   7
HETATM    7  O3  UNK   900      10.257 -25.278 -74.741  1.00  0.00    -0.383 OA
HETATM    8  H21 UNK   900      10.938 -25.209 -74.049  1.00  0.00     0.210 HD
ENDBRANCH   6   7
BRANCH   6   9
HETATM    9  C6  UNK   900       8.229 -26.484 -75.086  1.00  0.00     0.184 C 
HETATM   10  O2  UNK   900       7.644 -27.795 -74.991  1.00  0.00    -0.312 OA
HETATM   11  C15 UNK   900       6.925 -27.909 -73.833  1.00  0.00     0.260 C 
HETATM   12  O5  UNK   900       6.373 -28.931 -73.457  1.00  0.00    -0.265 OA
HETATM   13  C11 UNK   900       6.952 -26.607 -73.085  1.00  0.00     0.129 C 
HETATM   14  C7  UNK   900       7.409 -25.620 -74.141  1.00  0.00     0.088 C 
BRANCH  14  15
HETATM   15  S1  UNK   900       5.968 -24.901 -75.016  1.00  0.00    -0.166 SA
HETATM   16  C21 UNK   900       4.871 -24.740 -73.592  1.00  0.00     0.090 C 
ENDBRANCH  14  15
ENDBRANCH   6   9
ENDBRANCH   3   6
ENDBRANCH   1   2
BRANCH   1  17
HETATM   17  C2  UNK   900      11.348 -27.267 -78.945  1.00  0.00     0.159 C 
HETATM   18  O1  UNK   900      11.072 -27.707 -80.294  1.00  0.00    -0.309 OA
HETATM   19  C16 UNK   900      11.460 -26.956 -81.359  1.00  0.00     0.297 C 
HETATM   20  O6  UNK   900      11.443 -27.388 -82.504  1.00  0.00    -0.259 OA
HETATM   21  C14 UNK   900      11.878 -25.565 -81.062  1.00  0.00     0.079 A 
HETATM   22  C10 UNK   900      11.604 -25.000 -79.810  1.00  0.00    -0.037 A 
HETATM   23  C18 UNK   900      12.511 -24.809 -82.054  1.00  0.00     0.082 A 
HETATM   24  C5  UNK   900      10.903 -25.821 -78.771  1.00  0.00     0.074 C 
HETATM   25  C17 UNK   900      11.952 -23.668 -79.564  1.00  0.00     0.008 A 
HETATM   26  C19 UNK   900      12.588 -22.915 -80.552  1.00  0.00     0.003 A 
HETATM   27  C20 UNK   900      12.868 -23.486 -81.793  1.00  0.00     0.037 A 
BRANCH  23  28
HETATM   28  O7  UNK   900      12.812 -25.314 -83.283  1.00  0.00    -0.360 OA
HETATM   29  H27 UNK   900      13.077 -24.601 -83.885  1.00  0.00     0.217 HD
ENDBRANCH  23  28
ENDBRANCH   1  17
BRANCH   1  30
HETATM   30  C3  UNK   900       9.537 -29.007 -78.751  1.00  0.00     0.031 C 
BRANCH  30  31
HETATM   31  C4  UNK   900       8.088 -28.502 -78.584  1.00  0.00    -0.021 C 
HETATM   32  C12 UNK   900       7.107 -29.631 -78.268  1.00  0.00     0.009 C 
HETATM   33  C13 UNK   900       7.644 -27.778 -79.859  1.00  0.00     0.009 C 
ENDBRANCH  30  31
ENDBRANCH   1  30
TORSDOF 9
ENDMDL
MODEL 7
REMARK VINA RESULT:      -5.2     19.620     22.426
REMARK  9 active torsions:
REMARK  status: ('A' for Active; 'I' for Inactive)
REMARK    1  A    between atoms: S1_1  and  C7_16 
REMARK    2  A    between atoms: O3_4  and  C8_17 
REMARK    3  A    between atoms: O7_8  and  C18_27 
REMARK    4  A    between atoms: N1_9  and  C1_10 
REMARK       I    between atoms: N1_9  and  C9_18 
REMARK    5  A    between atoms: C1_10  and  C2_11 
REMARK    6  A    between atoms: C1_10  and  C3_12 
REMARK    7  A    between atoms: C3_12  and  C4_13 
REMARK    8  A    between atoms: C6_15  and  C8_17 
REMARK    9  A    between atoms: C8_17  and  C9_18 
ROOT
HETATM    1  C1  UNK   900       9.593 -28.841 -77.040  1.00  0.00     0.114 C 
ENDROOT
BRANCH   1   2
HETATM    2  N1  UNK   900       9.999 -28.473 -75.703  1.00  0.00    -0.352 N 
HETATM    3  C9  UNK   900      10.566 -29.377 -74.818  1.00  0.00     0.249 C 
HETATM    4  O4  UNK   900      10.785 -30.562 -75.061  1.00  0.00    -0.271 OA
HETATM    5  H9  UNK   900       9.851 -27.513 -75.409  1.00  0.00     0.163 HD
BRANCH   3   6
HETATM    6  C8  UNK   900      10.927 -28.735 -73.485  1.00  0.00     0.240 C 
BRANCH   6   7
HETATM    7  O3  UNK   900      12.274 -28.295 -73.528  1.00  0.00    -0.383 OA
HETATM    8  H21 UNK   900      12.356 -27.515 -72.952  1.00  0.00     0.210 HD
ENDBRANCH   6   7
BRANCH   6   9
HETATM    9  C6  UNK   900      10.040 -27.529 -73.197  1.00  0.00     0.184 C 
HETATM   10  O2  UNK   900       8.665 -27.944 -73.272  1.00  0.00    -0.312 OA
HETATM   11  C15 UNK   900       8.160 -28.140 -72.015  1.00  0.00     0.260 C 
HETATM   12  O5  UNK   900       7.038 -28.556 -71.775  1.00  0.00    -0.265 OA
HETATM   13  C11 UNK   900       9.203 -27.802 -70.989  1.00  0.00     0.129 C 
HETATM   14  C7  UNK   900      10.211 -26.994 -71.783  1.00  0.00     0.088 C 
BRANCH  14  15
HETATM   15  S1  UNK   900       9.801 -25.209 -71.718  1.00  0.00    -0.166 SA
HETATM   16  C21 UNK   900      11.034 -24.718 -70.495  1.00  0.00     0.090 C 
ENDBRANCH  14  15
ENDBRANCH   6   9
ENDBRANCH   3   6
ENDBRANCH   1   2
BRANCH   1  17
HETATM   17  C2  UNK   900      10.478 -28.138 -78.060  1.00  0.00     0.159 C 
HETATM   18  O1  UNK   900      10.080 -28.596 -79.373  1.00  0.00    -0.309 OA
HETATM   19  C16 UNK   900      10.577 -28.003 -80.492  1.00  0.00     0.297 C 
HETATM   20  O6  UNK   900      10.442 -28.492 -81.606  1.00  0.00    -0.259 OA
HETATM   21  C14 UNK   900      11.270 -26.708 -80.292  1.00  0.00     0.079 A 
HETATM   22  C10 UNK   900      11.150 -26.025 -79.076  1.00  0.00    -0.037 A 
HETATM   23  C18 UNK   900      12.010 -26.153 -81.342  1.00  0.00     0.082 A 
HETATM   24  C5  UNK   900      10.331 -26.626 -77.974  1.00  0.00     0.074 C 
HETATM   25  C17 UNK   900      11.761 -24.776 -78.923  1.00  0.00     0.008 A 
HETATM   26  C19 UNK   900      12.504 -24.226 -79.969  1.00  0.00     0.003 A 
HETATM   27  C20 UNK   900      12.629 -24.915 -81.174  1.00  0.00     0.037 A 
BRANCH  23  28
HETATM   28  O7  UNK   900      12.170 -26.782 -82.540  1.00  0.00    -0.360 OA
HETATM   29  H27 UNK   900      11.342 -27.207 -82.812  1.00  0.00     0.217 HD
ENDBRANCH  23  28
ENDBRANCH   1  17
BRANCH   1  30
HETATM   30  C3  UNK   900       8.109 -28.509 -77.284  1.00  0.00     0.031 C 
BRANCH  30  31
HETATM   31  C4  UNK   900       7.261 -29.669 -77.847  1.00  0.00    -0.021 C 
HETATM   32  C12 UNK   900       6.589 -29.312 -79.173  1.00  0.00     0.009 C 
HETATM   33  C13 UNK   900       6.197 -30.073 -76.822  1.00  0.00     0.009 C 
ENDBRANCH  30  31
ENDBRANCH   1  30
TORSDOF 9
ENDMDL
MODEL 8
REMARK VINA RESULT:      -5.1     29.536     32.739
REMARK  9 active torsions:
REMARK  status: ('A' for Active; 'I' for Inactive)
REMARK    1  A    between atoms: S1_1  and  C7_16 
REMARK    2  A    between atoms: O3_4  and  C8_17 
REMARK    3  A    between atoms: O7_8  and  C18_27 
REMARK    4  A    between atoms: N1_9  and  C1_10 
REMARK       I    between atoms: N1_9  and  C9_18 
REMARK    5  A    between atoms: C1_10  and  C2_11 
REMARK    6  A    between atoms: C1_10  and  C3_12 
REMARK    7  A    between atoms: C3_12  and  C4_13 
REMARK    8  A    between atoms: C6_15  and  C8_17 
REMARK    9  A    between atoms: C8_17  and  C9_18 
ROOT
HETATM    1  C1  UNK   900       1.377 -47.856 -42.981  1.00  0.00     0.114 C 
ENDROOT
BRANCH   1   2
HETATM    2  N1  UNK   900       1.470 -49.155 -43.609  1.00  0.00    -0.352 N 
HETATM    3  C9  UNK   900       1.396 -49.329 -44.983  1.00  0.00     0.249 C 
HETATM    4  O4  UNK   900       1.250 -48.425 -45.803  1.00  0.00    -0.271 OA
HETATM    5  H9  UNK   900       1.585 -49.965 -43.009  1.00  0.00     0.163 HD
BRANCH   3   6
HETATM    6  C8  UNK   900       1.544 -50.788 -45.392  1.00  0.00     0.240 C 
BRANCH   6   7
HETATM    7  O3  UNK   900       2.480 -51.420 -44.536  1.00  0.00    -0.383 OA
HETATM    8  H21 UNK   900       2.155 -52.315 -44.339  1.00  0.00     0.210 HD
ENDBRANCH   6   7
BRANCH   6   9
HETATM    9  C6  UNK   900       0.216 -51.529 -45.276  1.00  0.00     0.184 C 
HETATM   10  O2  UNK   900      -0.526 -51.330 -46.491  1.00  0.00    -0.312 OA
HETATM   11  C15 UNK   900      -0.415 -52.430 -47.299  1.00  0.00     0.260 C 
HETATM   12  O5  UNK   900      -0.887 -52.516 -48.421  1.00  0.00    -0.265 OA
HETATM   13  C11 UNK   900       0.402 -53.486 -46.612  1.00  0.00     0.129 C 
HETATM   14  C7  UNK   900       0.389 -53.036 -45.164  1.00  0.00     0.088 C 
BRANCH  14  15
HETATM   15  S1  UNK   900      -1.028 -53.780 -44.272  1.00  0.00    -0.166 SA
HETATM   16  C21 UNK   900      -0.182 -54.132 -42.717  1.00  0.00     0.090 C 
ENDBRANCH  14  15
ENDBRANCH   6   9
ENDBRANCH   3   6
ENDBRANCH   1   2
BRANCH   1  17
HETATM   17  C2  UNK   900       2.773 -47.306 -42.727  1.00  0.00     0.159 C 
HETATM   18  O1  UNK   900       2.778 -45.919 -43.135  1.00  0.00    -0.309 OA
HETATM   19  C16 UNK   900       3.843 -45.119 -42.857  1.00  0.00     0.297 C 
HETATM   20  O6  UNK   900       3.983 -44.016 -43.367  1.00  0.00    -0.259 OA
HETATM   21  C14 UNK   900       4.816 -45.647 -41.871  1.00  0.00     0.079 A 
HETATM   22  C10 UNK   900       4.488 -46.756 -41.081  1.00  0.00    -0.037 A 
HETATM   23  C18 UNK   900       6.048 -45.004 -41.707  1.00  0.00     0.082 A 
HETATM   24  C5  UNK   900       3.152 -47.413 -41.257  1.00  0.00     0.074 C 
HETATM   25  C17 UNK   900       5.393 -47.205 -40.115  1.00  0.00     0.008 A 
HETATM   26  C19 UNK   900       6.624 -46.567 -39.955  1.00  0.00     0.003 A 
HETATM   27  C20 UNK   900       6.950 -45.470 -40.751  1.00  0.00     0.037 A 
BRANCH  23  28
HETATM   28  O7  UNK   900       6.422 -43.931 -42.459  1.00  0.00    -0.360 OA
HETATM   29  H27 UNK   900       6.123 -44.039 -43.375  1.00  0.00     0.217 HD
ENDBRANCH  23  28
ENDBRANCH   1  17
BRANCH   1  30
HETATM   30  C3  UNK   900       0.571 -47.926 -41.672  1.00  0.00     0.031 C 
BRANCH  30  31
HETATM   31  C4  UNK   900      -0.578 -46.901 -41.554  1.00  0.00    -0.021 C 
HETATM   32  C12 UNK   900      -1.126 -46.477 -42.917  1.00  0.00     0.009 C 
HETATM   33  C13 UNK   900      -0.091 -45.668 -40.788  1.00  0.00     0.009 C 
ENDBRANCH  30  31
ENDBRANCH   1  30
TORSDOF 9
ENDMDL
MODEL 9
REMARK VINA RESULT:      -5.1     25.928     28.976
REMARK  9 active torsions:
REMARK  status: ('A' for Active; 'I' for Inactive)
REMARK    1  A    between atoms: S1_1  and  C7_16 
REMARK    2  A    between atoms: O3_4  and  C8_17 
REMARK    3  A    between atoms: O7_8  and  C18_27 
REMARK    4  A    between atoms: N1_9  and  C1_10 
REMARK       I    between atoms: N1_9  and  C9_18 
REMARK    5  A    between atoms: C1_10  and  C2_11 
REMARK    6  A    between atoms: C1_10  and  C3_12 
REMARK    7  A    between atoms: C3_12  and  C4_13 
REMARK    8  A    between atoms: C6_15  and  C8_17 
REMARK    9  A    between atoms: C8_17  and  C9_18 
ROOT
HETATM    1  C1  UNK   900      28.742 -67.355 -66.584  1.00  0.00     0.114 C 
ENDROOT
BRANCH   1   2
HETATM    2  N1  UNK   900      27.301 -67.304 -66.694  1.00  0.00    -0.352 N 
HETATM    3  C9  UNK   900      26.497 -66.729 -65.723  1.00  0.00     0.249 C 
HETATM    4  O4  UNK   900      26.903 -66.208 -64.686  1.00  0.00    -0.271 OA
HETATM    5  H9  UNK   900      26.873 -67.718 -67.516  1.00  0.00     0.163 HD
BRANCH   3   6
HETATM    6  C8  UNK   900      25.019 -66.783 -66.086  1.00  0.00     0.240 C 
BRANCH   6   7
HETATM    7  O3  UNK   900      24.879 -67.315 -67.392  1.00  0.00    -0.383 OA
HETATM    8  H21 UNK   900      24.957 -68.283 -67.335  1.00  0.00     0.210 HD
ENDBRANCH   6   7
BRANCH   6   9
HETATM    9  C6  UNK   900      24.247 -67.678 -65.122  1.00  0.00     0.184 C 
HETATM   10  O2  UNK   900      23.455 -66.844 -64.259  1.00  0.00    -0.312 OA
HETATM   11  C15 UNK   900      22.155 -66.823 -64.685  1.00  0.00     0.260 C 
HETATM   12  O5  UNK   900      21.271 -66.147 -64.183  1.00  0.00    -0.265 OA
HETATM   13  C11 UNK   900      21.995 -67.721 -65.878  1.00  0.00     0.129 C 
HETATM   14  C7  UNK   900      23.245 -68.578 -65.826  1.00  0.00     0.088 C 
BRANCH  14  15
HETATM   15  S1  UNK   900      22.945 -70.096 -64.844  1.00  0.00    -0.166 SA
HETATM   16  C21 UNK   900      24.453 -70.051 -63.854  1.00  0.00     0.090 C 
ENDBRANCH  14  15
ENDBRANCH   6   9
ENDBRANCH   3   6
ENDBRANCH   1   2
BRANCH   1  17
HETATM   17  C2  UNK   900      29.358 -66.184 -67.337  1.00  0.00     0.159 C 
HETATM   18  O1  UNK   900      30.791 -66.259 -67.165  1.00  0.00    -0.309 OA
HETATM   19  C16 UNK   900      31.617 -65.444 -67.876  1.00  0.00     0.297 C 
HETATM   20  O6  UNK   900      32.804 -65.321 -67.607  1.00  0.00    -0.259 OA
HETATM   21  C14 UNK   900      31.003 -64.731 -69.021  1.00  0.00     0.079 A 
HETATM   22  C10 UNK   900      29.741 -65.112 -69.494  1.00  0.00    -0.037 A 
HETATM   23  C18 UNK   900      31.712 -63.703 -69.652  1.00  0.00     0.082 A 
HETATM   24  C5  UNK   900      29.011 -66.233 -68.818  1.00  0.00     0.074 C 
HETATM   25  C17 UNK   900      29.202 -64.468 -70.612  1.00  0.00     0.008 A 
HETATM   26  C19 UNK   900      29.906 -63.440 -71.238  1.00  0.00     0.003 A 
HETATM   27  C20 UNK   900      31.158 -63.057 -70.757  1.00  0.00     0.037 A 
BRANCH  23  28
HETATM   28  O7  UNK   900      32.936 -63.285 -69.224  1.00  0.00    -0.360 OA
HETATM   29  H27 UNK   900      33.594 -63.390 -69.929  1.00  0.00     0.217 HD
ENDBRANCH  23  28
ENDBRANCH   1  17
BRANCH   1  30
HETATM   30  C3  UNK   900      29.295 -68.693 -67.108  1.00  0.00     0.031 C 
BRANCH  30  31
HETATM   31  C4  UNK   900      29.392 -69.819 -66.058  1.00  0.00    -0.021 C 
HETATM   32  C12 UNK   900      30.610 -70.716 -66.273  1.00  0.00     0.009 C 
HETATM   33  C13 UNK   900      28.116 -70.666 -66.092  1.00  0.00     0.009 C 
ENDBRANCH  30  31
ENDBRANCH   1  30
TORSDOF 9
ENDMDL
