MODEL 1
REMARK VINA RESULT:      -6.4      0.000      0.000
REMARK  5 active torsions:
REMARK  status: ('A' for Active; 'I' for Inactive)
REMARK    1  A    between atoms: O2_2  and  C8_11 
REMARK    2  A    between atoms: C1_4  and  C2_5 
REMARK    3  A    between atoms: C1_4  and  C3_6 
REMARK    4  A    between atoms: C2_5  and  C6_9 
REMARK    5  A    between atoms: C3_6  and  C4_7 
ROOT
HETATM    1  O1  UNK   900      20.387 -40.340 -69.522  1.00  0.00    -0.312 OA
HETATM    2  O3  UNK   900      19.337 -41.059 -71.386  1.00  0.00    -0.260 OA
HETATM    3  C4  UNK   900      21.572 -39.741 -68.964  1.00  0.00     0.138 C 
HETATM    4  C5  UNK   900      21.794 -38.376 -69.592  1.00  0.00     0.097 C 
HETATM    5  C8  UNK   900      21.811 -38.535 -71.078  1.00  0.00     0.057 C 
HETATM    6  C10 UNK   900      21.103 -39.501 -71.695  1.00  0.00     0.042 C 
HETATM    7  C11 UNK   900      20.209 -40.366 -70.870  1.00  0.00     0.291 C 
HETATM    8  C12 UNK   900      21.079 -39.773 -73.170  1.00  0.00     0.057 C 
ENDROOT
BRANCH   3   9
HETATM    9  C3  UNK   900      21.380 -39.638 -67.457  1.00  0.00     0.033 C 
BRANCH   9  10
HETATM   10  C1  UNK   900      22.459 -40.425 -66.707  1.00  0.00     0.007 C 
BRANCH  10  11
HETATM   11  C2  UNK   900      23.509 -39.564 -65.974  1.00  0.00    -0.019 C 
HETATM   12  C7  UNK   900      22.858 -38.662 -64.920  1.00  0.00     0.010 C 
BRANCH  11  13
HETATM   13  C6  UNK   900      24.398 -38.720 -66.905  1.00  0.00    -0.000 C 
HETATM   14  C9  UNK   900      24.228 -37.219 -66.718  1.00  0.00     0.005 C 
ENDBRANCH  11  13
ENDBRANCH  10  11
ENDBRANCH   9  10
ENDBRANCH   3   9
BRANCH   5  15
HETATM   15  O2  UNK   900      22.619 -37.623 -71.721  1.00  0.00    -0.364 OA
HETATM   16  H20 UNK   900      23.524 -37.976 -71.757  1.00  0.00     0.217 HD
ENDBRANCH   5  15
TORSDOF 5
ENDMDL
MODEL 2
REMARK VINA RESULT:      -6.2      1.686      2.364
REMARK  5 active torsions:
REMARK  status: ('A' for Active; 'I' for Inactive)
REMARK    1  A    between atoms: O2_2  and  C8_11 
REMARK    2  A    between atoms: C1_4  and  C2_5 
REMARK    3  A    between atoms: C1_4  and  C3_6 
REMARK    4  A    between atoms: C2_5  and  C6_9 
REMARK    5  A    between atoms: C3_6  and  C4_7 
ROOT
HETATM    1  O1  UNK   900      22.528 -39.736 -69.340  1.00  0.00    -0.312 OA
HETATM    2  O3  UNK   900      20.542 -39.673 -70.410  1.00  0.00    -0.260 OA
HETATM    3  C4  UNK   900      23.950 -39.932 -69.455  1.00  0.00     0.138 C 
HETATM    4  C5  UNK   900      24.527 -38.914 -70.423  1.00  0.00     0.097 C 
HETATM    5  C8  UNK   900      23.774 -39.006 -71.712  1.00  0.00     0.057 C 
HETATM    6  C10 UNK   900      22.481 -39.381 -71.750  1.00  0.00     0.042 C 
HETATM    7  C11 UNK   900      21.767 -39.612 -70.461  1.00  0.00     0.291 C 
HETATM    8  C12 UNK   900      21.645 -39.544 -72.986  1.00  0.00     0.057 C 
ENDROOT
BRANCH   3   9
HETATM    9  C3  UNK   900      24.557 -39.787 -68.066  1.00  0.00     0.033 C 
BRANCH   9  10
HETATM   10  C1  UNK   900      24.532 -38.329 -67.600  1.00  0.00     0.007 C 
BRANCH  10  11
HETATM   11  C2  UNK   900      23.601 -38.036 -66.406  1.00  0.00    -0.019 C 
HETATM   12  C7  UNK   900      24.148 -36.903 -65.532  1.00  0.00     0.010 C 
BRANCH  11  13
HETATM   13  C6  UNK   900      23.288 -39.264 -65.531  1.00  0.00    -0.000 C 
HETATM   14  C9  UNK   900      21.804 -39.599 -65.453  1.00  0.00     0.005 C 
ENDBRANCH  11  13
ENDBRANCH  10  11
ENDBRANCH   9  10
ENDBRANCH   3   9
BRANCH   5  15
HETATM   15  O2  UNK   900      24.533 -38.693 -72.818  1.00  0.00    -0.364 OA
HETATM   16  H20 UNK   900      24.889 -39.514 -73.197  1.00  0.00     0.217 HD
ENDBRANCH   5  15
TORSDOF 5
ENDMDL
MODEL 3
REMARK VINA RESULT:      -6.1      3.356      5.686
REMARK  5 active torsions:
REMARK  status: ('A' for Active; 'I' for Inactive)
REMARK    1  A    between atoms: O2_2  and  C8_11 
REMARK    2  A    between atoms: C1_4  and  C2_5 
REMARK    3  A    between atoms: C1_4  and  C3_6 
REMARK    4  A    between atoms: C2_5  and  C6_9 
REMARK    5  A    between atoms: C3_6  and  C4_7 
ROOT
HETATM    1  O1  UNK   900      22.801 -36.877 -67.478  1.00  0.00    -0.312 OA
HETATM    2  O3  UNK   900      24.536 -36.043 -66.301  1.00  0.00    -0.260 OA
HETATM    3  C4  UNK   900      21.416 -36.733 -67.844  1.00  0.00     0.138 C 
HETATM    4  C5  UNK   900      21.208 -35.393 -68.526  1.00  0.00     0.097 C 
HETATM    5  C8  UNK   900      21.737 -34.318 -67.631  1.00  0.00     0.057 C 
HETATM    6  C10 UNK   900      22.761 -34.541 -66.786  1.00  0.00     0.042 C 
HETATM    7  C11 UNK   900      23.440 -35.870 -66.824  1.00  0.00     0.291 C 
HETATM    8  C12 UNK   900      23.342 -33.550 -65.821  1.00  0.00     0.057 C 
ENDROOT
BRANCH   3   9
HETATM    9  C3  UNK   900      21.051 -37.890 -68.762  1.00  0.00     0.033 C 
BRANCH   9  10
HETATM   10  C1  UNK   900      21.048 -39.220 -68.003  1.00  0.00     0.007 C 
BRANCH  10  11
HETATM   11  C2  UNK   900      21.514 -40.444 -68.820  1.00  0.00    -0.019 C 
HETATM   12  C7  UNK   900      20.324 -41.244 -69.359  1.00  0.00     0.010 C 
BRANCH  11  13
HETATM   13  C6  UNK   900      22.473 -41.382 -68.064  1.00  0.00    -0.000 C 
HETATM   14  C9  UNK   900      23.258 -42.317 -68.973  1.00  0.00     0.005 C 
ENDBRANCH  11  13
ENDBRANCH  10  11
ENDBRANCH   9  10
ENDBRANCH   3   9
BRANCH   5  15
HETATM   15  O2  UNK   900      21.067 -33.120 -67.753  1.00  0.00    -0.364 OA
HETATM   16  H20 UNK   900      20.453 -33.179 -68.504  1.00  0.00     0.217 HD
ENDBRANCH   5  15
TORSDOF 5
ENDMDL
MODEL 4
REMARK VINA RESULT:      -6.0      3.443      6.076
REMARK  5 active torsions:
REMARK  status: ('A' for Active; 'I' for Inactive)
REMARK    1  A    between atoms: O2_2  and  C8_11 
REMARK    2  A    between atoms: C1_4  and  C2_5 
REMARK    3  A    between atoms: C1_4  and  C3_6 
REMARK    4  A    between atoms: C2_5  and  C6_9 
REMARK    5  A    between atoms: C3_6  and  C4_7 
ROOT
HETATM    1  O1  UNK   900      22.690 -36.918 -66.987  1.00  0.00    -0.312 OA
HETATM    2  O3  UNK   900      22.115 -34.773 -67.389  1.00  0.00    -0.260 OA
HETATM    3  C4  UNK   900      23.606 -37.815 -66.330  1.00  0.00     0.138 C 
HETATM    4  C5  UNK   900      23.578 -37.562 -64.833  1.00  0.00     0.097 C 
HETATM    5  C8  UNK   900      23.839 -36.110 -64.592  1.00  0.00     0.057 C 
HETATM    6  C10 UNK   900      23.479 -35.168 -65.485  1.00  0.00     0.042 C 
HETATM    7  C11 UNK   900      22.713 -35.589 -66.695  1.00  0.00     0.291 C 
HETATM    8  C12 UNK   900      23.726 -33.694 -65.362  1.00  0.00     0.057 C 
ENDROOT
BRANCH   3   9
HETATM    9  C3  UNK   900      23.187 -39.239 -66.664  1.00  0.00     0.033 C 
BRANCH   9  10
HETATM   10  C1  UNK   900      23.201 -39.481 -68.176  1.00  0.00     0.007 C 
BRANCH  10  11
HETATM   11  C2  UNK   900      21.950 -40.185 -68.741  1.00  0.00    -0.019 C 
HETATM   12  C7  UNK   900      20.669 -39.674 -68.074  1.00  0.00     0.010 C 
BRANCH  11  13
HETATM   13  C6  UNK   900      22.000 -41.722 -68.662  1.00  0.00    -0.000 C 
HETATM   14  C9  UNK   900      23.368 -42.308 -68.985  1.00  0.00     0.005 C 
ENDBRANCH  11  13
ENDBRANCH  10  11
ENDBRANCH   9  10
ENDBRANCH   3   9
BRANCH   5  15
HETATM   15  O2  UNK   900      24.485 -35.855 -63.402  1.00  0.00    -0.364 OA
HETATM   16  H20 UNK   900      24.582 -36.690 -62.913  1.00  0.00     0.217 HD
ENDBRANCH   5  15
TORSDOF 5
ENDMDL
MODEL 5
REMARK VINA RESULT:      -5.4      3.249      5.840
REMARK  5 active torsions:
REMARK  status: ('A' for Active; 'I' for Inactive)
REMARK    1  A    between atoms: O2_2  and  C8_11 
REMARK    2  A    between atoms: C1_4  and  C2_5 
REMARK    3  A    between atoms: C1_4  and  C3_6 
REMARK    4  A    between atoms: C2_5  and  C6_9 
REMARK    5  A    between atoms: C3_6  and  C4_7 
ROOT
HETATM    1  O1  UNK   900      22.276 -35.581 -68.708  1.00  0.00    -0.312 OA
HETATM    2  O3  UNK   900      22.058 -33.415 -68.114  1.00  0.00    -0.260 OA
HETATM    3  C4  UNK   900      22.959 -36.828 -68.478  1.00  0.00     0.138 C 
HETATM    4  C5  UNK   900      22.749 -37.264 -67.039  1.00  0.00     0.097 C 
HETATM    5  C8  UNK   900      23.165 -36.145 -66.139  1.00  0.00     0.057 C 
HETATM    6  C10 UNK   900      23.067 -34.857 -66.520  1.00  0.00     0.042 C 
HETATM    7  C11 UNK   900      22.435 -34.549 -67.836  1.00  0.00     0.291 C 
HETATM    8  C12 UNK   900      23.490 -33.664 -65.715  1.00  0.00     0.057 C 
ENDROOT
BRANCH   3   9
HETATM    9  C3  UNK   900      22.405 -37.853 -69.459  1.00  0.00     0.033 C 
BRANCH   9  10
HETATM   10  C1  UNK   900      22.513 -39.273 -68.896  1.00  0.00     0.007 C 
BRANCH  10  11
HETATM   11  C2  UNK   900      23.667 -40.121 -69.470  1.00  0.00    -0.019 C 
HETATM   12  C7  UNK   900      24.051 -39.664 -70.882  1.00  0.00     0.010 C 
BRANCH  11  13
HETATM   13  C6  UNK   900      23.400 -41.637 -69.469  1.00  0.00    -0.000 C 
HETATM   14  C9  UNK   900      22.725 -42.139 -68.199  1.00  0.00     0.005 C 
ENDBRANCH  11  13
ENDBRANCH  10  11
ENDBRANCH   9  10
ENDBRANCH   3   9
BRANCH   5  15
HETATM   15  O2  UNK   900      23.661 -36.569 -64.925  1.00  0.00    -0.364 OA
HETATM   16  H20 UNK   900      23.573 -37.535 -64.871  1.00  0.00     0.217 HD
ENDBRANCH   5  15
TORSDOF 5
ENDMDL
MODEL 6
REMARK VINA RESULT:      -5.1     16.000     18.537
REMARK  5 active torsions:
REMARK  status: ('A' for Active; 'I' for Inactive)
REMARK    1  A    between atoms: O2_2  and  C8_11 
REMARK    2  A    between atoms: C1_4  and  C2_5 
REMARK    3  A    between atoms: C1_4  and  C3_6 
REMARK    4  A    between atoms: C2_5  and  C6_9 
REMARK    5  A    between atoms: C3_6  and  C4_7 
ROOT
HETATM    1  O1  UNK   900      35.490 -37.708 -57.514  1.00  0.00    -0.312 OA
HETATM    2  O3  UNK   900      34.769 -36.644 -59.368  1.00  0.00    -0.260 OA
HETATM    3  C4  UNK   900      35.334 -37.889 -56.093  1.00  0.00     0.138 C 
HETATM    4  C5  UNK   900      33.924 -38.365 -55.794  1.00  0.00     0.097 C 
HETATM    5  C8  UNK   900      32.958 -37.407 -56.415  1.00  0.00     0.057 C 
HETATM    6  C10 UNK   900      33.261 -36.723 -57.534  1.00  0.00     0.042 C 
HETATM    7  C11 UNK   900      34.558 -37.009 -58.216  1.00  0.00     0.291 C 
HETATM    8  C12 UNK   900      32.386 -35.713 -58.216  1.00  0.00     0.057 C 
ENDROOT
BRANCH   3   9
HETATM    9  C3  UNK   900      36.375 -38.900 -55.633  1.00  0.00     0.033 C 
BRANCH   9  10
HETATM   10  C1  UNK   900      35.714 -40.196 -55.153  1.00  0.00     0.007 C 
BRANCH  10  11
HETATM   11  C2  UNK   900      36.338 -41.495 -55.705  1.00  0.00    -0.019 C 
HETATM   12  C7  UNK   900      36.700 -42.466 -54.576  1.00  0.00     0.010 C 
BRANCH  11  13
HETATM   13  C6  UNK   900      37.560 -41.274 -56.615  1.00  0.00    -0.000 C 
HETATM   14  C9  UNK   900      38.842 -41.899 -56.081  1.00  0.00     0.005 C 
ENDBRANCH  11  13
ENDBRANCH  10  11
ENDBRANCH   9  10
ENDBRANCH   3   9
BRANCH   5  15
HETATM   15  O2  UNK   900      31.771 -37.296 -55.724  1.00  0.00    -0.364 OA
HETATM   16  H20 UNK   900      31.648 -36.368 -55.461  1.00  0.00     0.217 HD
ENDBRANCH   5  15
TORSDOF 5
ENDMDL
MODEL 7
REMARK VINA RESULT:      -5.1     15.762     18.035
REMARK  5 active torsions:
REMARK  status: ('A' for Active; 'I' for Inactive)
REMARK    1  A    between atoms: O2_2  and  C8_11 
REMARK    2  A    between atoms: C1_4  and  C2_5 
REMARK    3  A    between atoms: C1_4  and  C3_6 
REMARK    4  A    between atoms: C2_5  and  C6_9 
REMARK    5  A    between atoms: C3_6  and  C4_7 
ROOT
HETATM    1  O1  UNK   900      34.701 -35.645 -57.088  1.00  0.00    -0.312 OA
HETATM    2  O3  UNK   900      35.108 -36.659 -55.114  1.00  0.00    -0.260 OA
HETATM    3  C4  UNK   900      34.052 -35.727 -58.372  1.00  0.00     0.138 C 
HETATM    4  C5  UNK   900      32.557 -35.899 -58.174  1.00  0.00     0.097 C 
HETATM    5  C8  UNK   900      32.329 -37.074 -57.278  1.00  0.00     0.057 C 
HETATM    6  C10 UNK   900      33.222 -37.429 -56.335  1.00  0.00     0.042 C 
HETATM    7  C11 UNK   900      34.418 -36.561 -56.124  1.00  0.00     0.291 C 
HETATM    8  C12 UNK   900      33.112 -38.607 -55.413  1.00  0.00     0.057 C 
ENDROOT
BRANCH   3   9
HETATM    9  C3  UNK   900      34.372 -34.453 -59.140  1.00  0.00     0.033 C 
BRANCH   9  10
HETATM   10  C1  UNK   900      35.827 -34.027 -58.927  1.00  0.00     0.007 C 
BRANCH  10  11
HETATM   11  C2  UNK   900      36.018 -32.621 -58.321  1.00  0.00    -0.019 C 
HETATM   12  C7  UNK   900      34.695 -31.852 -58.261  1.00  0.00     0.010 C 
BRANCH  11  13
HETATM   13  C6  UNK   900      37.085 -31.766 -59.030  1.00  0.00    -0.000 C 
HETATM   14  C9  UNK   900      36.666 -30.318 -59.246  1.00  0.00     0.005 C 
ENDBRANCH  11  13
ENDBRANCH  10  11
ENDBRANCH   9  10
ENDBRANCH   3   9
BRANCH   5  15
HETATM   15  O2  UNK   900      31.149 -37.741 -57.532  1.00  0.00    -0.364 OA
HETATM   16  H20 UNK   900      31.121 -37.978 -58.474  1.00  0.00     0.217 HD
ENDBRANCH   5  15
TORSDOF 5
ENDMDL
MODEL 8
REMARK VINA RESULT:      -4.6     35.282     36.897
REMARK  5 active torsions:
REMARK  status: ('A' for Active; 'I' for Inactive)
REMARK    1  A    between atoms: O2_2  and  C8_11 
REMARK    2  A    between atoms: C1_4  and  C2_5 
REMARK    3  A    between atoms: C1_4  and  C3_6 
REMARK    4  A    between atoms: C2_5  and  C6_9 
REMARK    5  A    between atoms: C3_6  and  C4_7 
ROOT
HETATM    1  O1  UNK   900       6.346 -66.762 -49.405  1.00  0.00    -0.312 OA
HETATM    2  O3  UNK   900       7.880 -66.920 -47.756  1.00  0.00    -0.260 OA
HETATM    3  C4  UNK   900       6.059 -66.307 -50.740  1.00  0.00     0.138 C 
HETATM    4  C5  UNK   900       7.013 -66.969 -51.719  1.00  0.00     0.097 C 
HETATM    5  C8  UNK   900       8.413 -66.720 -51.258  1.00  0.00     0.057 C 
HETATM    6  C10 UNK   900       8.713 -66.572 -49.953  1.00  0.00     0.042 C 
HETATM    7  C11 UNK   900       7.627 -66.759 -48.946  1.00  0.00     0.291 C 
HETATM    8  C12 UNK   900      10.071 -66.281 -49.387  1.00  0.00     0.057 C 
ENDROOT
BRANCH   3   9
HETATM    9  C3  UNK   900       4.610 -66.653 -51.051  1.00  0.00     0.033 C 
BRANCH   9  10
HETATM   10  C1  UNK   900       4.002 -65.655 -52.041  1.00  0.00     0.007 C 
BRANCH  10  11
HETATM   11  C2  UNK   900       2.460 -65.601 -52.056  1.00  0.00    -0.019 C 
HETATM   12  C7  UNK   900       1.902 -65.134 -50.708  1.00  0.00     0.010 C 
BRANCH  11  13
HETATM   13  C6  UNK   900       1.783 -66.921 -52.471  1.00  0.00    -0.000 C 
HETATM   14  C9  UNK   900       0.317 -66.764 -52.850  1.00  0.00     0.005 C 
ENDBRANCH  11  13
ENDBRANCH  10  11
ENDBRANCH   9  10
ENDBRANCH   3   9
BRANCH   5  15
HETATM   15  O2  UNK   900       9.327 -66.645 -52.287  1.00  0.00    -0.364 OA
HETATM   16  H20 UNK   900       9.674 -65.739 -52.331  1.00  0.00     0.217 HD
ENDBRANCH   5  15
TORSDOF 5
ENDMDL
MODEL 9
REMARK VINA RESULT:      -4.6     16.577     18.958
REMARK  5 active torsions:
REMARK  status: ('A' for Active; 'I' for Inactive)
REMARK    1  A    between atoms: O2_2  and  C8_11 
REMARK    2  A    between atoms: C1_4  and  C2_5 
REMARK    3  A    between atoms: C1_4  and  C3_6 
REMARK    4  A    between atoms: C2_5  and  C6_9 
REMARK    5  A    between atoms: C3_6  and  C4_7 
ROOT
HETATM    1  O1  UNK   900      36.911 -36.410 -57.161  1.00  0.00    -0.312 OA
HETATM    2  O3  UNK   900      36.589 -34.210 -57.549  1.00  0.00    -0.260 OA
HETATM    3  C4  UNK   900      36.314 -37.719 -57.093  1.00  0.00     0.138 C 
HETATM    4  C5  UNK   900      35.699 -38.067 -58.436  1.00  0.00     0.097 C 
HETATM    5  C8  UNK   900      34.762 -36.970 -58.827  1.00  0.00     0.057 C 
HETATM    6  C10 UNK   900      34.963 -35.696 -58.439  1.00  0.00     0.042 C 
HETATM    7  C11 UNK   900      36.207 -35.369 -57.682  1.00  0.00     0.291 C 
HETATM    8  C12 UNK   900      34.069 -34.529 -58.740  1.00  0.00     0.057 C 
ENDROOT
BRANCH   3   9
HETATM    9  C3  UNK   900      37.403 -38.710 -56.703  1.00  0.00     0.033 C 
BRANCH   9  10
HETATM   10  C1  UNK   900      37.021 -39.483 -55.438  1.00  0.00     0.007 C 
BRANCH  10  11
HETATM   11  C2  UNK   900      36.344 -40.848 -55.681  1.00  0.00    -0.019 C 
HETATM   12  C7  UNK   900      34.822 -40.707 -55.795  1.00  0.00     0.010 C 
BRANCH  11  13
HETATM   13  C6  UNK   900      36.691 -41.923 -54.634  1.00  0.00    -0.000 C 
HETATM   14  C9  UNK   900      38.024 -41.690 -53.937  1.00  0.00     0.005 C 
ENDBRANCH  11  13
ENDBRANCH  10  11
ENDBRANCH   9  10
ENDBRANCH   3   9
BRANCH   5  15
HETATM   15  O2  UNK   900      33.696 -37.399 -59.588  1.00  0.00    -0.364 OA
HETATM   16  H20 UNK   900      33.595 -36.803 -60.349  1.00  0.00     0.217 HD
ENDBRANCH   5  15
TORSDOF 5
ENDMDL
