MODEL 1
REMARK VINA RESULT:      -7.3      0.000      0.000
REMARK  5 active torsions:
REMARK  status: ('A' for Active; 'I' for Inactive)
REMARK    1  A    between atoms: O2_2  and  C2_9 
REMARK    2  A    between atoms: O3_3  and  C3_10 
REMARK    3  A    between atoms: O5_5  and  C13_20 
REMARK    4  A    between atoms: O6_6  and  C12_19 
REMARK    5  A    between atoms: C1_8  and  C3_10 
ROOT
HETATM    1  O1  UNK   900      32.561 -47.609 -64.902  1.00  0.00    -0.349 OA
HETATM    2  O4  UNK   900      30.148 -49.775 -59.916  1.00  0.00    -0.281 OA
HETATM    3  O7  UNK   900      32.188 -50.594 -59.200  1.00  0.00    -0.259 OA
HETATM    4  C1  UNK   900      30.155 -47.376 -65.334  1.00  0.00     0.077 C 
HETATM    5  C2  UNK   900      29.814 -47.614 -63.856  1.00  0.00     0.163 C 
HETATM    6  C4  UNK   900      30.976 -48.254 -63.150  1.00  0.00     0.017 A 
HETATM    7  C5  UNK   900      31.546 -46.744 -65.418  1.00  0.00     0.186 C 
HETATM    8  C6  UNK   900      32.271 -48.202 -63.698  1.00  0.00     0.087 A 
HETATM    9  C7  UNK   900      30.825 -48.894 -61.921  1.00  0.00     0.027 A 
HETATM   10  C10 UNK   900      31.915 -49.452 -61.281  1.00  0.00     0.085 A 
HETATM   11  C11 UNK   900      33.363 -48.799 -63.040  1.00  0.00     0.006 A 
HETATM   12  C12 UNK   900      29.616 -49.098 -61.085  1.00  0.00     0.303 A 
HETATM   13  C13 UNK   900      33.192 -49.430 -61.810  1.00  0.00     0.093 A 
HETATM   14  C14 UNK   900      31.489 -50.022 -60.013  1.00  0.00     0.299 A 
HETATM   15  C15 UNK   900      34.724 -48.771 -63.666  1.00  0.00     0.054 C 
ENDROOT
BRANCH   4  16
HETATM   16  C3  UNK   900      29.121 -46.516 -66.054  1.00  0.00     0.059 C 
HETATM   17  C8  UNK   900      28.839 -47.076 -67.444  1.00  0.00     0.046 C 
HETATM   18  C9  UNK   900      29.592 -45.067 -66.138  1.00  0.00     0.046 C 
BRANCH  16  19
HETATM   19  O3  UNK   900      27.906 -46.562 -65.310  1.00  0.00    -0.390 OA
HETATM   20  H13 UNK   900      27.295 -47.162 -65.770  1.00  0.00     0.210 HD
ENDBRANCH  16  19
ENDBRANCH   4  16
BRANCH   5  21
HETATM   21  O2  UNK   900      29.533 -46.390 -63.183  1.00  0.00    -0.390 OA
HETATM   22  H12 UNK   900      28.903 -46.578 -62.468  1.00  0.00     0.210 HD
ENDBRANCH   5  21
BRANCH  12  23
HETATM   23  O6  UNK   900      28.621 -49.891 -61.713  1.00  0.00    -0.366 OA
HETATM   24  H17 UNK   900      28.069 -50.269 -61.008  1.00  0.00     0.213 HD
ENDBRANCH  12  23
BRANCH  13  25
HETATM   25  O5  UNK   900      34.237 -50.007 -61.166  1.00  0.00    -0.354 OA
HETATM   26  C16 UNK   900      35.026 -49.168 -60.319  1.00  0.00     0.210 C 
ENDBRANCH  13  25
TORSDOF 5
ENDMDL
MODEL 2
REMARK VINA RESULT:      -6.4     32.112     34.741
REMARK  5 active torsions:
REMARK  status: ('A' for Active; 'I' for Inactive)
REMARK    1  A    between atoms: O2_2  and  C2_9 
REMARK    2  A    between atoms: O3_3  and  C3_10 
REMARK    3  A    between atoms: O5_5  and  C13_20 
REMARK    4  A    between atoms: O6_6  and  C12_19 
REMARK    5  A    between atoms: C1_8  and  C3_10 
ROOT
HETATM    1  O1  UNK   900       3.248 -68.048 -49.113  1.00  0.00    -0.349 OA
HETATM    2  O4  UNK   900       8.464 -65.852 -50.943  1.00  0.00    -0.281 OA
HETATM    3  O7  UNK   900       9.532 -66.609 -49.037  1.00  0.00    -0.259 OA
HETATM    4  C1  UNK   900       2.596 -66.671 -51.039  1.00  0.00     0.077 C 
HETATM    5  C2  UNK   900       4.051 -66.559 -51.518  1.00  0.00     0.163 C 
HETATM    6  C4  UNK   900       4.994 -66.914 -50.403  1.00  0.00     0.017 A 
HETATM    7  C5  UNK   900       2.430 -67.992 -50.285  1.00  0.00     0.186 C 
HETATM    8  C6  UNK   900       4.549 -67.643 -49.285  1.00  0.00     0.087 A 
HETATM    9  C7  UNK   900       6.342 -66.564 -50.444  1.00  0.00     0.027 A 
HETATM   10  C10 UNK   900       7.194 -66.924 -49.417  1.00  0.00     0.085 A 
HETATM   11  C11 UNK   900       5.429 -67.979 -48.239  1.00  0.00     0.006 A 
HETATM   12  C12 UNK   900       7.114 -65.825 -51.474  1.00  0.00     0.303 A 
HETATM   13  C13 UNK   900       6.774 -67.623 -48.301  1.00  0.00     0.093 A 
HETATM   14  C14 UNK   900       8.539 -66.465 -49.724  1.00  0.00     0.299 A 
HETATM   15  C15 UNK   900       4.921 -68.715 -47.037  1.00  0.00     0.054 C 
ENDROOT
BRANCH   4  16
HETATM   16  C3  UNK   900       1.584 -66.562 -52.175  1.00  0.00     0.059 C 
HETATM   17  C8  UNK   900       0.338 -65.819 -51.707  1.00  0.00     0.046 C 
HETATM   18  C9  UNK   900       1.224 -67.945 -52.710  1.00  0.00     0.046 C 
BRANCH  16  19
HETATM   19  O3  UNK   900       2.175 -65.802 -53.228  1.00  0.00    -0.390 OA
HETATM   20  H13 UNK   900       2.761 -66.392 -53.731  1.00  0.00     0.210 HD
ENDBRANCH  16  19
ENDBRANCH   4  16
BRANCH   5  21
HETATM   21  O2  UNK   900       4.315 -67.454 -52.595  1.00  0.00    -0.390 OA
HETATM   22  H12 UNK   900       5.261 -67.395 -52.810  1.00  0.00     0.210 HD
ENDBRANCH   5  21
BRANCH  12  23
HETATM   23  O6  UNK   900       6.676 -64.487 -51.659  1.00  0.00    -0.366 OA
HETATM   24  H17 UNK   900       5.943 -64.511 -52.297  1.00  0.00     0.213 HD
ENDBRANCH  12  23
BRANCH  13  25
HETATM   25  O5  UNK   900       7.632 -67.942 -47.299  1.00  0.00    -0.354 OA
HETATM   26  C16 UNK   900       8.239 -69.235 -47.346  1.00  0.00     0.210 C 
ENDBRANCH  13  25
TORSDOF 5
ENDMDL
MODEL 3
REMARK VINA RESULT:      -5.9     23.106     25.034
REMARK  5 active torsions:
REMARK  status: ('A' for Active; 'I' for Inactive)
REMARK    1  A    between atoms: O2_2  and  C2_9 
REMARK    2  A    between atoms: O3_3  and  C3_10 
REMARK    3  A    between atoms: O5_5  and  C13_20 
REMARK    4  A    between atoms: O6_6  and  C12_19 
REMARK    5  A    between atoms: C1_8  and  C3_10 
ROOT
HETATM    1  O1  UNK   900      21.247 -28.649 -50.136  1.00  0.00    -0.349 OA
HETATM    2  O4  UNK   900      26.674 -27.741 -52.395  1.00  0.00    -0.281 OA
HETATM    3  O7  UNK   900      26.058 -25.675 -53.229  1.00  0.00    -0.259 OA
HETATM    4  C1  UNK   900      22.297 -30.855 -49.892  1.00  0.00     0.077 C 
HETATM    5  C2  UNK   900      23.695 -30.277 -50.158  1.00  0.00     0.163 C 
HETATM    6  C4  UNK   900      23.584 -28.929 -50.813  1.00  0.00     0.017 A 
HETATM    7  C5  UNK   900      21.430 -29.765 -49.259  1.00  0.00     0.186 C 
HETATM    8  C6  UNK   900      22.386 -28.193 -50.751  1.00  0.00     0.087 A 
HETATM    9  C7  UNK   900      24.661 -28.345 -51.475  1.00  0.00     0.027 A 
HETATM   10  C10 UNK   900      24.540 -27.092 -52.047  1.00  0.00     0.085 A 
HETATM   11  C11 UNK   900      22.278 -26.928 -51.361  1.00  0.00     0.006 A 
HETATM   12  C12 UNK   900      26.042 -28.844 -51.695  1.00  0.00     0.303 A 
HETATM   13  C13 UNK   900      23.368 -26.361 -52.015  1.00  0.00     0.093 A 
HETATM   14  C14 UNK   900      25.811 -26.709 -52.641  1.00  0.00     0.299 A 
HETATM   15  C15 UNK   900      20.978 -26.185 -51.323  1.00  0.00     0.054 C 
ENDROOT
BRANCH   4  16
HETATM   16  C3  UNK   900      22.326 -32.105 -49.017  1.00  0.00     0.059 C 
HETATM   17  C8  UNK   900      23.398 -33.071 -49.508  1.00  0.00     0.046 C 
HETATM   18  C9  UNK   900      20.956 -32.777 -48.996  1.00  0.00     0.046 C 
BRANCH  16  19
HETATM   19  O3  UNK   900      22.666 -31.713 -47.690  1.00  0.00    -0.390 OA
HETATM   20  H13 UNK   900      22.963 -30.788 -47.716  1.00  0.00     0.210 HD
ENDBRANCH  16  19
ENDBRANCH   4  16
BRANCH   5  21
HETATM   21  O2  UNK   900      24.424 -30.100 -48.947  1.00  0.00    -0.390 OA
HETATM   22  H12 UNK   900      23.783 -30.020 -48.220  1.00  0.00     0.210 HD
ENDBRANCH   5  21
BRANCH  12  23
HETATM   23  O6  UNK   900      26.097 -30.029 -52.475  1.00  0.00    -0.366 OA
HETATM   24  H17 UNK   900      25.623 -29.848 -53.304  1.00  0.00     0.213 HD
ENDBRANCH  12  23
BRANCH  13  25
HETATM   25  O5  UNK   900      23.276 -25.143 -52.606  1.00  0.00    -0.354 OA
HETATM   26  C16 UNK   900      23.513 -23.998 -51.783  1.00  0.00     0.210 C 
ENDBRANCH  13  25
TORSDOF 5
ENDMDL
MODEL 4
REMARK VINA RESULT:      -5.9      2.952      3.469
REMARK  5 active torsions:
REMARK  status: ('A' for Active; 'I' for Inactive)
REMARK    1  A    between atoms: O2_2  and  C2_9 
REMARK    2  A    between atoms: O3_3  and  C3_10 
REMARK    3  A    between atoms: O5_5  and  C13_20 
REMARK    4  A    between atoms: O6_6  and  C12_19 
REMARK    5  A    between atoms: C1_8  and  C3_10 
ROOT
HETATM    1  O1  UNK   900      35.093 -45.971 -62.336  1.00  0.00    -0.349 OA
HETATM    2  O4  UNK   900      29.932 -48.024 -60.209  1.00  0.00    -0.281 OA
HETATM    3  O7  UNK   900      31.013 -49.604 -58.913  1.00  0.00    -0.259 OA
HETATM    4  C1  UNK   900      33.447 -44.856 -63.777  1.00  0.00     0.077 C 
HETATM    5  C2  UNK   900      32.293 -45.220 -62.829  1.00  0.00     0.163 C 
HETATM    6  C4  UNK   900      32.709 -46.333 -61.909  1.00  0.00     0.017 A 
HETATM    7  C5  UNK   900      34.732 -44.733 -62.957  1.00  0.00     0.186 C 
HETATM    8  C6  UNK   900      34.069 -46.631 -61.704  1.00  0.00     0.087 A 
HETATM    9  C7  UNK   900      31.774 -47.088 -61.204  1.00  0.00     0.027 A 
HETATM   10  C10 UNK   900      32.184 -48.089 -60.343  1.00  0.00     0.085 A 
HETATM   11  C11 UNK   900      34.463 -47.671 -60.841  1.00  0.00     0.006 A 
HETATM   12  C12 UNK   900      30.292 -47.011 -61.184  1.00  0.00     0.303 A 
HETATM   13  C13 UNK   900      33.512 -48.412 -60.142  1.00  0.00     0.093 A 
HETATM   14  C14 UNK   900      31.018 -48.693 -59.718  1.00  0.00     0.299 A 
HETATM   15  C15 UNK   900      35.915 -48.000 -60.675  1.00  0.00     0.054 C 
ENDROOT
BRANCH   4  16
HETATM   16  C3  UNK   900      33.184 -43.582 -64.573  1.00  0.00     0.059 C 
HETATM   17  C8  UNK   900      33.703 -43.730 -65.999  1.00  0.00     0.046 C 
HETATM   18  C9  UNK   900      33.821 -42.378 -63.886  1.00  0.00     0.046 C 
BRANCH  16  19
HETATM   19  O3  UNK   900      31.774 -43.379 -64.641  1.00  0.00    -0.390 OA
HETATM   20  H13 UNK   900      31.357 -44.234 -64.846  1.00  0.00     0.210 HD
ENDBRANCH  16  19
ENDBRANCH   4  16
BRANCH   5  21
HETATM   21  O2  UNK   900      31.922 -44.113 -62.013  1.00  0.00    -0.390 OA
HETATM   22  H12 UNK   900      32.726 -43.605 -61.812  1.00  0.00     0.210 HD
ENDBRANCH   5  21
BRANCH  12  23
HETATM   23  O6  UNK   900      29.694 -47.292 -62.441  1.00  0.00    -0.366 OA
HETATM   24  H17 UNK   900      29.882 -46.536 -63.022  1.00  0.00     0.213 HD
ENDBRANCH  12  23
BRANCH  13  25
HETATM   25  O5  UNK   900      33.880 -49.416 -59.307  1.00  0.00    -0.354 OA
HETATM   26  C16 UNK   900      34.033 -50.717 -59.879  1.00  0.00     0.210 C 
ENDBRANCH  13  25
TORSDOF 5
ENDMDL
MODEL 5
REMARK VINA RESULT:      -5.8     23.927     25.821
REMARK  5 active torsions:
REMARK  status: ('A' for Active; 'I' for Inactive)
REMARK    1  A    between atoms: O2_2  and  C2_9 
REMARK    2  A    between atoms: O3_3  and  C3_10 
REMARK    3  A    between atoms: O5_5  and  C13_20 
REMARK    4  A    between atoms: O6_6  and  C12_19 
REMARK    5  A    between atoms: C1_8  and  C3_10 
ROOT
HETATM    1  O1  UNK   900      10.780 -65.236 -66.731  1.00  0.00    -0.349 OA
HETATM    2  O4  UNK   900      15.045 -67.589 -63.318  1.00  0.00    -0.281 OA
HETATM    3  O7  UNK   900      13.544 -69.032 -62.313  1.00  0.00    -0.259 OA
HETATM    4  C1  UNK   900      12.659 -63.699 -67.098  1.00  0.00     0.077 C 
HETATM    5  C2  UNK   900      13.656 -64.685 -66.471  1.00  0.00     0.163 C 
HETATM    6  C4  UNK   900      12.926 -65.712 -65.651  1.00  0.00     0.017 A 
HETATM    7  C5  UNK   900      11.508 -64.495 -67.715  1.00  0.00     0.186 C 
HETATM    8  C6  UNK   900      11.550 -65.938 -65.836  1.00  0.00     0.087 A 
HETATM    9  C7  UNK   900      13.583 -66.494 -64.704  1.00  0.00     0.027 A 
HETATM   10  C10 UNK   900      12.893 -67.449 -63.981  1.00  0.00     0.085 A 
HETATM   11  C11 UNK   900      10.862 -66.899 -65.072  1.00  0.00     0.006 A 
HETATM   12  C12 UNK   900      15.009 -66.514 -64.292  1.00  0.00     0.303 A 
HETATM   13  C13 UNK   900      11.538 -67.674 -64.132  1.00  0.00     0.093 A 
HETATM   14  C14 UNK   900      13.814 -68.139 -63.092  1.00  0.00     0.299 A 
HETATM   15  C15 UNK   900       9.388 -67.089 -65.254  1.00  0.00     0.054 C 
ENDROOT
BRANCH   4  16
HETATM   16  C3  UNK   900      13.301 -62.780 -68.133  1.00  0.00     0.059 C 
HETATM   17  C8  UNK   900      12.655 -61.399 -68.090  1.00  0.00     0.046 C 
HETATM   18  C9  UNK   900      13.197 -63.386 -69.529  1.00  0.00     0.046 C 
BRANCH  16  19
HETATM   19  O3  UNK   900      14.679 -62.627 -67.801  1.00  0.00    -0.390 OA
HETATM   20  H13 UNK   900      14.733 -62.249 -66.906  1.00  0.00     0.210 HD
ENDBRANCH  16  19
ENDBRANCH   4  16
BRANCH   5  21
HETATM   21  O2  UNK   900      14.392 -65.387 -67.470  1.00  0.00    -0.390 OA
HETATM   22  H12 UNK   900      14.572 -64.770 -68.199  1.00  0.00     0.210 HD
ENDBRANCH   5  21
BRANCH  12  23
HETATM   23  O6  UNK   900      15.447 -65.296 -63.710  1.00  0.00    -0.366 OA
HETATM   24  H17 UNK   900      15.392 -64.613 -64.400  1.00  0.00     0.213 HD
ENDBRANCH  12  23
BRANCH  13  25
HETATM   25  O5  UNK   900      10.885 -68.605 -63.390  1.00  0.00    -0.354 OA
HETATM   26  C16 UNK   900      10.242 -68.153 -62.196  1.00  0.00     0.210 C 
ENDBRANCH  13  25
TORSDOF 5
ENDMDL
MODEL 6
REMARK VINA RESULT:      -5.8     28.476     30.060
REMARK  5 active torsions:
REMARK  status: ('A' for Active; 'I' for Inactive)
REMARK    1  A    between atoms: O2_2  and  C2_9 
REMARK    2  A    between atoms: O3_3  and  C3_10 
REMARK    3  A    between atoms: O5_5  and  C13_20 
REMARK    4  A    between atoms: O6_6  and  C12_19 
REMARK    5  A    between atoms: C1_8  and  C3_10 
ROOT
HETATM    1  O1  UNK   900      25.889 -20.266 -72.123  1.00  0.00    -0.349 OA
HETATM    2  O4  UNK   900      22.540 -23.637 -75.700  1.00  0.00    -0.281 OA
HETATM    3  O7  UNK   900      24.404 -24.701 -76.559  1.00  0.00    -0.259 OA
HETATM    4  C1  UNK   900      23.680 -19.213 -71.925  1.00  0.00     0.077 C 
HETATM    5  C2  UNK   900      22.988 -20.421 -72.575  1.00  0.00     0.163 C 
HETATM    6  C4  UNK   900      23.993 -21.261 -73.312  1.00  0.00     0.017 A 
HETATM    7  C5  UNK   900      24.942 -19.699 -71.212  1.00  0.00     0.186 C 
HETATM    8  C6  UNK   900      25.369 -21.149 -73.036  1.00  0.00     0.087 A 
HETATM    9  C7  UNK   900      23.606 -22.197 -74.269  1.00  0.00     0.027 A 
HETATM   10  C10 UNK   900      24.549 -22.975 -74.914  1.00  0.00     0.085 A 
HETATM   11  C11 UNK   900      26.314 -21.935 -73.723  1.00  0.00     0.006 A 
HETATM   12  C12 UNK   900      22.256 -22.564 -74.765  1.00  0.00     0.303 A 
HETATM   13  C13 UNK   900      25.905 -22.868 -74.673  1.00  0.00     0.093 A 
HETATM   14  C14 UNK   900      23.878 -23.882 -75.831  1.00  0.00     0.299 A 
HETATM   15  C15 UNK   900      27.776 -21.765 -73.445  1.00  0.00     0.054 C 
ENDROOT
BRANCH   4  16
HETATM   16  C3  UNK   900      22.770 -18.452 -70.965  1.00  0.00     0.059 C 
HETATM   17  C8  UNK   900      21.408 -18.208 -71.606  1.00  0.00     0.046 C 
HETATM   18  C9  UNK   900      23.416 -17.135 -70.544  1.00  0.00     0.046 C 
BRANCH  16  19
HETATM   19  O3  UNK   900      22.570 -19.257 -69.806  1.00  0.00    -0.390 OA
HETATM   20  H13 UNK   900      21.753 -18.959 -69.371  1.00  0.00     0.210 HD
ENDBRANCH  16  19
ENDBRANCH   4  16
BRANCH   5  21
HETATM   21  O2  UNK   900      22.374 -21.257 -71.598  1.00  0.00    -0.390 OA
HETATM   22  H12 UNK   900      22.898 -21.199 -70.782  1.00  0.00     0.210 HD
ENDBRANCH   5  21
BRANCH  12  23
HETATM   23  O6  UNK   900      21.582 -21.497 -75.416  1.00  0.00    -0.366 OA
HETATM   24  H17 UNK   900      21.661 -21.651 -76.372  1.00  0.00     0.213 HD
ENDBRANCH  12  23
BRANCH  13  25
HETATM   25  O5  UNK   900      26.807 -23.631 -75.340  1.00  0.00    -0.354 OA
HETATM   26  C16 UNK   900      27.228 -23.170 -76.626  1.00  0.00     0.210 C 
ENDBRANCH  13  25
TORSDOF 5
ENDMDL
MODEL 7
REMARK VINA RESULT:      -5.7     21.947     23.986
REMARK  5 active torsions:
REMARK  status: ('A' for Active; 'I' for Inactive)
REMARK    1  A    between atoms: O2_2  and  C2_9 
REMARK    2  A    between atoms: O3_3  and  C3_10 
REMARK    3  A    between atoms: O5_5  and  C13_20 
REMARK    4  A    between atoms: O6_6  and  C12_19 
REMARK    5  A    between atoms: C1_8  and  C3_10 
ROOT
HETATM    1  O1  UNK   900      13.650 -65.796 -66.743  1.00  0.00    -0.349 OA
HETATM    2  O4  UNK   900      19.389 -64.940 -65.436  1.00  0.00    -0.281 OA
HETATM    3  O7  UNK   900      19.675 -63.564 -67.272  1.00  0.00    -0.259 OA
HETATM    4  C1  UNK   900      14.047 -67.464 -64.986  1.00  0.00     0.077 C 
HETATM    5  C2  UNK   900      15.376 -66.805 -64.587  1.00  0.00     0.163 C 
HETATM    6  C4  UNK   900      15.858 -65.900 -65.686  1.00  0.00     0.017 A 
HETATM    7  C5  UNK   900      13.120 -66.388 -65.554  1.00  0.00     0.186 C 
HETATM    8  C6  UNK   900      14.975 -65.439 -66.681  1.00  0.00     0.087 A 
HETATM    9  C7  UNK   900      17.178 -65.461 -65.748  1.00  0.00     0.027 A 
HETATM   10  C10 UNK   900      17.589 -64.608 -66.756  1.00  0.00     0.085 A 
HETATM   11  C11 UNK   900      15.421 -64.590 -67.711  1.00  0.00     0.006 A 
HETATM   12  C12 UNK   900      18.330 -65.745 -64.856  1.00  0.00     0.303 A 
HETATM   13  C13 UNK   900      16.744 -64.159 -67.753  1.00  0.00     0.093 A 
HETATM   14  C14 UNK   900      18.994 -64.284 -66.568  1.00  0.00     0.299 A 
HETATM   15  C15 UNK   900      14.473 -64.150 -68.785  1.00  0.00     0.054 C 
ENDROOT
BRANCH   4  16
HETATM   16  C3  UNK   900      13.379 -68.204 -63.830  1.00  0.00     0.059 C 
HETATM   17  C8  UNK   900      14.396 -69.075 -63.100  1.00  0.00     0.046 C 
HETATM   18  C9  UNK   900      12.208 -69.042 -64.334  1.00  0.00     0.046 C 
BRANCH  16  19
HETATM   19  O3  UNK   900      12.888 -67.238 -62.905  1.00  0.00    -0.390 OA
HETATM   20  H13 UNK   900      13.504 -66.484 -62.902  1.00  0.00     0.210 HD
ENDBRANCH  16  19
ENDBRANCH   4  16
BRANCH   5  21
HETATM   21  O2  UNK   900      15.231 -66.007 -63.416  1.00  0.00    -0.390 OA
HETATM   22  H12 UNK   900      15.246 -65.073 -63.685  1.00  0.00     0.210 HD
ENDBRANCH   5  21
BRANCH  12  23
HETATM   23  O6  UNK   900      18.700 -67.114 -64.828  1.00  0.00    -0.366 OA
HETATM   24  H17 UNK   900      18.502 -67.446 -63.936  1.00  0.00     0.213 HD
ENDBRANCH  12  23
BRANCH  13  25
HETATM   25  O5  UNK   900      17.185 -63.340 -68.741  1.00  0.00    -0.354 OA
HETATM   26  C16 UNK   900      17.652 -63.959 -69.942  1.00  0.00     0.210 C 
ENDBRANCH  13  25
TORSDOF 5
ENDMDL
MODEL 8
REMARK VINA RESULT:      -5.7     32.740     35.625
REMARK  5 active torsions:
REMARK  status: ('A' for Active; 'I' for Inactive)
REMARK    1  A    between atoms: O2_2  and  C2_9 
REMARK    2  A    between atoms: O3_3  and  C3_10 
REMARK    3  A    between atoms: O5_5  and  C13_20 
REMARK    4  A    between atoms: O6_6  and  C12_19 
REMARK    5  A    between atoms: C1_8  and  C3_10 
ROOT
HETATM    1  O1  UNK   900       5.051 -67.734 -49.619  1.00  0.00    -0.349 OA
HETATM    2  O4  UNK   900       4.209 -70.753 -54.674  1.00  0.00    -0.281 OA
HETATM    3  O7  UNK   900       1.912 -70.579 -54.479  1.00  0.00    -0.259 OA
HETATM    4  C1  UNK   900       7.299 -68.596 -50.101  1.00  0.00     0.077 C 
HETATM    5  C2  UNK   900       6.907 -68.962 -51.540  1.00  0.00     0.163 C 
HETATM    6  C4  UNK   900       5.411 -69.019 -51.673  1.00  0.00     0.017 A 
HETATM    7  C5  UNK   900       6.444 -67.411 -49.649  1.00  0.00     0.186 C 
HETATM    8  C6  UNK   900       4.578 -68.396 -50.725  1.00  0.00     0.087 A 
HETATM    9  C7  UNK   900       4.794 -69.660 -52.745  1.00  0.00     0.027 A 
HETATM   10  C10 UNK   900       3.416 -69.676 -52.857  1.00  0.00     0.085 A 
HETATM   11  C11 UNK   900       3.176 -68.445 -50.846  1.00  0.00     0.006 A 
HETATM   12  C12 UNK   900       5.381 -70.382 -53.902  1.00  0.00     0.303 A 
HETATM   13  C13 UNK   900       2.579 -69.087 -51.928  1.00  0.00     0.093 A 
HETATM   14  C14 UNK   900       3.040 -70.377 -54.073  1.00  0.00     0.299 A 
HETATM   15  C15 UNK   900       2.309 -67.814 -49.800  1.00  0.00     0.054 C 
ENDROOT
BRANCH   4  16
HETATM   16  C3  UNK   900       8.785 -68.285 -49.949  1.00  0.00     0.059 C 
HETATM   17  C8  UNK   900       9.325 -68.892 -48.659  1.00  0.00     0.046 C 
HETATM   18  C9  UNK   900       9.025 -66.778 -49.983  1.00  0.00     0.046 C 
BRANCH  16  19
HETATM   19  O3  UNK   900       9.481 -68.885 -51.039  1.00  0.00    -0.390 OA
HETATM   20  H13 UNK   900      10.313 -68.399 -51.168  1.00  0.00     0.210 HD
ENDBRANCH  16  19
ENDBRANCH   4  16
BRANCH   5  21
HETATM   21  O2  UNK   900       7.377 -67.991 -52.471  1.00  0.00    -0.390 OA
HETATM   22  H12 UNK   900       6.603 -67.576 -52.888  1.00  0.00     0.210 HD
ENDBRANCH   5  21
BRANCH  12  23
HETATM   23  O6  UNK   900       6.122 -71.535 -53.533  1.00  0.00    -0.366 OA
HETATM   24  H17 UNK   900       6.226 -71.510 -52.567  1.00  0.00     0.213 HD
ENDBRANCH  12  23
BRANCH  13  25
HETATM   25  O5  UNK   900       1.229 -69.140 -52.055  1.00  0.00    -0.354 OA
HETATM   26  C16 UNK   900       0.593 -68.044 -52.716  1.00  0.00     0.210 C 
ENDBRANCH  13  25
TORSDOF 5
ENDMDL
MODEL 9
REMARK VINA RESULT:      -5.6     17.932     19.099
REMARK  5 active torsions:
REMARK  status: ('A' for Active; 'I' for Inactive)
REMARK    1  A    between atoms: O2_2  and  C2_9 
REMARK    2  A    between atoms: O3_3  and  C3_10 
REMARK    3  A    between atoms: O5_5  and  C13_20 
REMARK    4  A    between atoms: O6_6  and  C12_19 
REMARK    5  A    between atoms: C1_8  and  C3_10 
ROOT
HETATM    1  O1  UNK   900      28.421 -65.111 -69.782  1.00  0.00    -0.349 OA
HETATM    2  O4  UNK   900      27.117 -67.351 -64.428  1.00  0.00    -0.281 OA
HETATM    3  O7  UNK   900      24.857 -67.384 -64.914  1.00  0.00    -0.259 OA
HETATM    4  C1  UNK   900      30.553 -64.893 -68.584  1.00  0.00     0.077 C 
HETATM    5  C2  UNK   900      30.080 -65.833 -67.465  1.00  0.00     0.163 C 
HETATM    6  C4  UNK   900      28.583 -65.960 -67.490  1.00  0.00     0.017 A 
HETATM    7  C5  UNK   900      29.839 -65.279 -69.880  1.00  0.00     0.186 C 
HETATM    8  C6  UNK   900      27.849 -65.611 -68.639  1.00  0.00     0.087 A 
HETATM    9  C7  UNK   900      27.871 -66.451 -66.398  1.00  0.00     0.027 A 
HETATM   10  C10 UNK   900      26.496 -66.581 -66.457  1.00  0.00     0.085 A 
HETATM   11  C11 UNK   900      26.446 -65.731 -68.668  1.00  0.00     0.006 A 
HETATM   12  C12 UNK   900      28.344 -66.915 -65.070  1.00  0.00     0.303 A 
HETATM   13  C13 UNK   900      25.753 -66.227 -67.567  1.00  0.00     0.093 A 
HETATM   14  C14 UNK   900      26.012 -67.141 -65.206  1.00  0.00     0.299 A 
HETATM   15  C15 UNK   900      25.682 -65.310 -69.886  1.00  0.00     0.054 C 
ENDROOT
BRANCH   4  16
HETATM   16  C3  UNK   900      32.067 -64.904 -68.772  1.00  0.00     0.059 C 
HETATM   17  C8  UNK   900      32.579 -63.494 -69.042  1.00  0.00     0.046 C 
HETATM   18  C9  UNK   900      32.461 -65.851 -69.902  1.00  0.00     0.046 C 
BRANCH  16  19
HETATM   19  O3  UNK   900      32.665 -65.361 -67.561  1.00  0.00    -0.390 OA
HETATM   20  H13 UNK   900      33.468 -64.835 -67.405  1.00  0.00     0.210 HD
ENDBRANCH  16  19
ENDBRANCH   4  16
BRANCH   5  21
HETATM   21  O2  UNK   900      30.618 -67.143 -67.624  1.00  0.00    -0.390 OA
HETATM   22  H12 UNK   900      29.971 -67.675 -68.116  1.00  0.00     0.210 HD
ENDBRANCH   5  21
BRANCH  12  23
HETATM   23  O6  UNK   900      28.975 -65.898 -64.307  1.00  0.00    -0.366 OA
HETATM   24  H17 UNK   900      29.635 -66.333 -63.742  1.00  0.00     0.213 HD
ENDBRANCH  12  23
BRANCH  13  25
HETATM   25  O5  UNK   900      24.401 -66.347 -67.584  1.00  0.00    -0.354 OA
HETATM   26  C16 UNK   900      23.860 -67.554 -68.125  1.00  0.00     0.210 C 
ENDBRANCH  13  25
TORSDOF 5
ENDMDL
