MODEL 1
REMARK VINA RESULT:      -6.7      0.000      0.000
REMARK  2 active torsions:
REMARK  status: ('A' for Active; 'I' for Inactive)
REMARK    1  A    between atoms: O2_2  and  C11_13 
REMARK    2  A    between atoms: C5_7  and  C11_13 
ROOT
HETATM    1  O1  UNK   900      23.937 -30.881 -50.250  1.00  0.00    -0.309 OA
HETATM    2  C1  UNK   900      21.465 -29.348 -49.911  1.00  0.00     0.083 A 
HETATM    3  C2  UNK   900      21.641 -30.757 -49.427  1.00  0.00    -0.019 A 
HETATM    4  C3  UNK   900      22.848 -31.435 -49.619  1.00  0.00     0.091 A 
HETATM    5  C4  UNK   900      22.689 -28.809 -50.590  1.00  0.00    -0.019 A 
HETATM    6  C5  UNK   900      23.002 -32.747 -49.162  1.00  0.00     0.000 A 
HETATM    7  C6  UNK   900      23.840 -29.593 -50.720  1.00  0.00     0.082 A 
HETATM    8  C7  UNK   900      20.589 -31.408 -48.770  1.00  0.00     0.017 A 
HETATM    9  C8  UNK   900      20.742 -32.718 -48.315  1.00  0.00    -0.061 A 
HETATM   10  C9  UNK   900      21.949 -33.387 -48.511  1.00  0.00     0.019 A 
HETATM   11  C10 UNK   900      22.689 -27.505 -51.103  1.00  0.00     0.017 A 
HETATM   12  C12 UNK   900      23.822 -26.995 -51.736  1.00  0.00    -0.061 A 
HETATM   13  C13 UNK   900      24.975 -29.080 -51.355  1.00  0.00     0.038 A 
HETATM   14  C14 UNK   900      24.965 -27.782 -51.861  1.00  0.00     0.009 A 
HETATM   15  C15 UNK   900      19.614 -33.402 -47.618  1.00  0.00     0.048 C 
HETATM   16  C16 UNK   900      23.811 -25.605 -52.278  1.00  0.00     0.048 C 
ENDROOT
BRANCH   6  17
HETATM   17  C11 UNK   900      24.284 -33.488 -49.360  1.00  0.00     0.208 C 
BRANCH  17  18
HETATM   18  O2  UNK   900      24.014 -34.739 -49.977  1.00  0.00    -0.391 OA
HETATM   19  C17 UNK   900      25.150 -35.234 -50.673  1.00  0.00     0.201 C 
ENDBRANCH  17  18
ENDBRANCH   6  17
TORSDOF 2
ENDMDL
MODEL 2
REMARK VINA RESULT:      -6.5      1.581      5.866
REMARK  2 active torsions:
REMARK  status: ('A' for Active; 'I' for Inactive)
REMARK    1  A    between atoms: O2_2  and  C11_13 
REMARK    2  A    between atoms: C5_7  and  C11_13 
ROOT
HETATM    1  O1  UNK   900      23.603 -30.892 -49.559  1.00  0.00    -0.309 OA
HETATM    2  C1  UNK   900      20.806 -30.062 -49.300  1.00  0.00     0.083 A 
HETATM    3  C2  UNK   900      21.849 -29.255 -50.016  1.00  0.00    -0.019 A 
HETATM    4  C3  UNK   900      23.169 -29.707 -50.105  1.00  0.00     0.091 A 
HETATM    5  C4  UNK   900      21.350 -31.339 -48.729  1.00  0.00    -0.019 A 
HETATM    6  C5  UNK   900      24.132 -28.948 -50.776  1.00  0.00     0.000 A 
HETATM    7  C6  UNK   900      22.696 -31.678 -48.888  1.00  0.00     0.082 A 
HETATM    8  C7  UNK   900      21.504 -28.033 -50.607  1.00  0.00     0.017 A 
HETATM    9  C8  UNK   900      22.465 -27.274 -51.275  1.00  0.00    -0.061 A 
HETATM   10  C9  UNK   900      23.779 -27.732 -51.360  1.00  0.00     0.019 A 
HETATM   11  C10 UNK   900      20.504 -32.208 -48.027  1.00  0.00     0.017 A 
HETATM   12  C12 UNK   900      20.999 -33.397 -47.492  1.00  0.00    -0.061 A 
HETATM   13  C13 UNK   900      23.192 -32.870 -48.351  1.00  0.00     0.038 A 
HETATM   14  C14 UNK   900      22.343 -33.729 -47.655  1.00  0.00     0.009 A 
HETATM   15  C15 UNK   900      22.087 -25.973 -51.900  1.00  0.00     0.048 C 
HETATM   16  C16 UNK   900      20.090 -34.316 -46.747  1.00  0.00     0.048 C 
ENDROOT
BRANCH   6  17
HETATM   17  C11 UNK   900      25.547 -29.415 -50.881  1.00  0.00     0.208 C 
BRANCH  17  18
HETATM   18  O2  UNK   900      26.180 -28.754 -51.968  1.00  0.00    -0.391 OA
HETATM   19  C17 UNK   900      27.562 -28.539 -51.713  1.00  0.00     0.201 C 
ENDBRANCH  17  18
ENDBRANCH   6  17
TORSDOF 2
ENDMDL
MODEL 3
REMARK VINA RESULT:      -6.3      1.617      3.562
REMARK  2 active torsions:
REMARK  status: ('A' for Active; 'I' for Inactive)
REMARK    1  A    between atoms: O2_2  and  C11_13 
REMARK    2  A    between atoms: C5_7  and  C11_13 
ROOT
HETATM    1  O1  UNK   900      21.827 -29.041 -50.115  1.00  0.00    -0.309 OA
HETATM    2  C1  UNK   900      24.545 -28.886 -51.195  1.00  0.00     0.083 A 
HETATM    3  C2  UNK   900      24.032 -30.050 -50.399  1.00  0.00    -0.019 A 
HETATM    4  C3  UNK   900      22.723 -30.064 -49.911  1.00  0.00     0.091 A 
HETATM    5  C4  UNK   900      23.516 -27.808 -51.376  1.00  0.00    -0.019 A 
HETATM    6  C5  UNK   900      22.255 -31.154 -49.172  1.00  0.00     0.000 A 
HETATM    7  C6  UNK   900      22.235 -27.943 -50.836  1.00  0.00     0.082 A 
HETATM    8  C7  UNK   900      24.871 -31.142 -50.138  1.00  0.00     0.017 A 
HETATM    9  C8  UNK   900      24.404 -32.230 -49.400  1.00  0.00    -0.061 A 
HETATM   10  C9  UNK   900      23.097 -32.236 -48.917  1.00  0.00     0.019 A 
HETATM   11  C10 UNK   900      23.836 -26.649 -52.096  1.00  0.00     0.017 A 
HETATM   12  C12 UNK   900      22.888 -25.642 -52.271  1.00  0.00    -0.061 A 
HETATM   13  C13 UNK   900      21.285 -26.933 -51.012  1.00  0.00     0.038 A 
HETATM   14  C14 UNK   900      21.612 -25.784 -51.730  1.00  0.00     0.009 A 
HETATM   15  C15 UNK   900      25.305 -33.388 -49.127  1.00  0.00     0.048 C 
HETATM   16  C16 UNK   900      23.239 -24.413 -53.040  1.00  0.00     0.048 C 
ENDROOT
BRANCH   6  17
HETATM   17  C11 UNK   900      20.859 -31.186 -48.642  1.00  0.00     0.208 C 
BRANCH  17  18
HETATM   18  O2  UNK   900      20.368 -32.519 -48.691  1.00  0.00    -0.391 OA
HETATM   19  C17 UNK   900      19.134 -32.646 -47.997  1.00  0.00     0.201 C 
ENDBRANCH  17  18
ENDBRANCH   6  17
TORSDOF 2
ENDMDL
MODEL 4
REMARK VINA RESULT:      -6.2      2.163      6.722
REMARK  2 active torsions:
REMARK  status: ('A' for Active; 'I' for Inactive)
REMARK    1  A    between atoms: O2_2  and  C11_13 
REMARK    2  A    between atoms: C5_7  and  C11_13 
ROOT
HETATM    1  O1  UNK   900      20.925 -29.696 -49.109  1.00  0.00    -0.309 OA
HETATM    2  C1  UNK   900      22.762 -31.957 -49.405  1.00  0.00     0.083 A 
HETATM    3  C2  UNK   900      23.032 -30.590 -49.961  1.00  0.00    -0.019 A 
HETATM    4  C3  UNK   900      22.113 -29.551 -49.785  1.00  0.00     0.091 A 
HETATM    5  C4  UNK   900      21.449 -32.043 -48.684  1.00  0.00    -0.019 A 
HETATM    6  C5  UNK   900      22.375 -28.281 -50.305  1.00  0.00     0.000 A 
HETATM    7  C6  UNK   900      20.617 -30.926 -48.576  1.00  0.00     0.082 A 
HETATM    8  C7  UNK   900      24.217 -30.342 -50.665  1.00  0.00     0.017 A 
HETATM    9  C8  UNK   900      24.479 -29.074 -51.185  1.00  0.00    -0.061 A 
HETATM   10  C9  UNK   900      23.557 -28.044 -51.005  1.00  0.00     0.019 A 
HETATM   11  C10 UNK   900      21.045 -33.254 -48.106  1.00  0.00     0.017 A 
HETATM   12  C12 UNK   900      19.827 -33.345 -47.433  1.00  0.00    -0.061 A 
HETATM   13  C13 UNK   900      19.395 -31.017 -47.902  1.00  0.00     0.038 A 
HETATM   14  C14 UNK   900      19.003 -32.226 -47.330  1.00  0.00     0.009 A 
HETATM   15  C15 UNK   900      25.744 -28.822 -51.934  1.00  0.00     0.048 C 
HETATM   16  C16 UNK   900      19.408 -34.639 -46.821  1.00  0.00     0.048 C 
ENDROOT
BRANCH   6  17
HETATM   17  C11 UNK   900      21.405 -27.159 -50.128  1.00  0.00     0.208 C 
BRANCH  17  18
HETATM   18  O2  UNK   900      20.714 -26.937 -51.350  1.00  0.00    -0.391 OA
HETATM   19  C17 UNK   900      20.732 -25.564 -51.717  1.00  0.00     0.201 C 
ENDBRANCH  17  18
ENDBRANCH   6  17
TORSDOF 2
ENDMDL
MODEL 5
REMARK VINA RESULT:      -6.0      2.356      7.194
REMARK  2 active torsions:
REMARK  status: ('A' for Active; 'I' for Inactive)
REMARK    1  A    between atoms: O2_2  and  C11_13 
REMARK    2  A    between atoms: C5_7  and  C11_13 
ROOT
HETATM    1  O1  UNK   900      22.159 -28.245 -50.625  1.00  0.00    -0.309 OA
HETATM    2  C1  UNK   900      24.920 -28.827 -51.409  1.00  0.00     0.083 A 
HETATM    3  C2  UNK   900      24.188 -27.579 -51.809  1.00  0.00    -0.019 A 
HETATM    4  C3  UNK   900      22.870 -27.360 -51.401  1.00  0.00     0.091 A 
HETATM    5  C4  UNK   900      24.085 -29.745 -50.567  1.00  0.00    -0.019 A 
HETATM    6  C5  UNK   900      22.198 -26.194 -51.778  1.00  0.00     0.000 A 
HETATM    7  C6  UNK   900      22.772 -29.409 -50.226  1.00  0.00     0.082 A 
HETATM    8  C7  UNK   900      24.829 -26.616 -52.599  1.00  0.00     0.017 A 
HETATM    9  C8  UNK   900      24.158 -25.452 -52.976  1.00  0.00    -0.061 A 
HETATM   10  C9  UNK   900      22.843 -25.241 -52.566  1.00  0.00     0.019 A 
HETATM   11  C10 UNK   900      24.621 -30.957 -50.111  1.00  0.00     0.017 A 
HETATM   12  C12 UNK   900      23.853 -31.819 -49.327  1.00  0.00    -0.061 A 
HETATM   13  C13 UNK   900      22.003 -30.274 -49.441  1.00  0.00     0.038 A 
HETATM   14  C14 UNK   900      22.545 -31.476 -48.991  1.00  0.00     0.009 A 
HETATM   15  C15 UNK   900      24.848 -24.433 -53.819  1.00  0.00     0.048 C 
HETATM   16  C16 UNK   900      24.434 -33.106 -48.846  1.00  0.00     0.048 C 
ENDROOT
BRANCH   6  17
HETATM   17  C11 UNK   900      20.788 -25.943 -51.353  1.00  0.00     0.208 C 
BRANCH  17  18
HETATM   18  O2  UNK   900      20.020 -25.549 -52.481  1.00  0.00    -0.391 OA
HETATM   19  C17 UNK   900      19.193 -24.431 -52.184  1.00  0.00     0.201 C 
ENDBRANCH  17  18
ENDBRANCH   6  17
TORSDOF 2
ENDMDL
MODEL 6
REMARK VINA RESULT:      -5.9     38.831     42.149
REMARK  2 active torsions:
REMARK  status: ('A' for Active; 'I' for Inactive)
REMARK    1  A    between atoms: O2_2  and  C11_13 
REMARK    2  A    between atoms: C5_7  and  C11_13 
ROOT
HETATM    1  O1  UNK   900       6.879 -68.647 -51.253  1.00  0.00    -0.309 OA
HETATM    2  C1  UNK   900       7.600 -71.477 -51.027  1.00  0.00     0.083 A 
HETATM    3  C2  UNK   900       8.353 -70.370 -50.348  1.00  0.00    -0.019 A 
HETATM    4  C3  UNK   900       7.957 -69.038 -50.496  1.00  0.00     0.091 A 
HETATM    5  C4  UNK   900       6.439 -70.978 -51.836  1.00  0.00    -0.019 A 
HETATM    6  C5  UNK   900       8.666 -68.016 -49.858  1.00  0.00     0.000 A 
HETATM    7  C6  UNK   900       6.146 -69.613 -51.903  1.00  0.00     0.082 A 
HETATM    8  C7  UNK   900       9.468 -70.669 -49.554  1.00  0.00     0.017 A 
HETATM    9  C8  UNK   900      10.176 -69.648 -48.918  1.00  0.00    -0.061 A 
HETATM   10  C9  UNK   900       9.774 -68.322 -49.070  1.00  0.00     0.019 A 
HETATM   11  C10 UNK   900       5.631 -71.885 -52.535  1.00  0.00     0.017 A 
HETATM   12  C12 UNK   900       4.549 -71.432 -53.290  1.00  0.00    -0.061 A 
HETATM   13  C13 UNK   900       5.062 -69.160 -52.660  1.00  0.00     0.038 A 
HETATM   14  C14 UNK   900       4.264 -70.069 -53.352  1.00  0.00     0.009 A 
HETATM   15  C15 UNK   900      11.362 -69.976 -48.074  1.00  0.00     0.048 C 
HETATM   16  C16 UNK   900       3.696 -72.406 -54.030  1.00  0.00     0.048 C 
ENDROOT
BRANCH   6  17
HETATM   17  C11 UNK   900       8.258 -66.586 -50.005  1.00  0.00     0.208 C 
BRANCH  17  18
HETATM   18  O2  UNK   900       7.651 -66.144 -48.798  1.00  0.00    -0.391 OA
HETATM   19  C17 UNK   900       6.232 -66.161 -48.892  1.00  0.00     0.201 C 
ENDBRANCH  17  18
ENDBRANCH   6  17
TORSDOF 2
ENDMDL
MODEL 7
REMARK VINA RESULT:      -5.9     22.097     25.460
REMARK  2 active torsions:
REMARK  status: ('A' for Active; 'I' for Inactive)
REMARK    1  A    between atoms: O2_2  and  C11_13 
REMARK    2  A    between atoms: C5_7  and  C11_13 
ROOT
HETATM    1  O1  UNK   900      22.512 -20.470 -73.728  1.00  0.00    -0.309 OA
HETATM    2  C1  UNK   900      23.719 -22.626 -72.155  1.00  0.00     0.083 A 
HETATM    3  C2  UNK   900      23.309 -21.304 -71.576  1.00  0.00    -0.019 A 
HETATM    4  C3  UNK   900      22.737 -20.315 -72.381  1.00  0.00     0.091 A 
HETATM    5  C4  UNK   900      23.447 -22.724 -73.627  1.00  0.00    -0.019 A 
HETATM    6  C5  UNK   900      22.358 -19.088 -71.830  1.00  0.00     0.000 A 
HETATM    7  C6  UNK   900      22.867 -21.659 -74.322  1.00  0.00     0.082 A 
HETATM    8  C7  UNK   900      23.497 -21.050 -70.211  1.00  0.00     0.017 A 
HETATM    9  C8  UNK   900      23.119 -19.825 -69.661  1.00  0.00    -0.061 A 
HETATM   10  C9  UNK   900      22.550 -18.844 -70.471  1.00  0.00     0.019 A 
HETATM   11  C10 UNK   900      23.774 -23.896 -74.323  1.00  0.00     0.017 A 
HETATM   12  C12 UNK   900      23.524 -23.999 -75.691  1.00  0.00    -0.061 A 
HETATM   13  C13 UNK   900      22.619 -21.762 -75.693  1.00  0.00     0.038 A 
HETATM   14  C14 UNK   900      22.946 -22.932 -76.376  1.00  0.00     0.009 A 
HETATM   15  C15 UNK   900      23.325 -19.564 -68.207  1.00  0.00     0.048 C 
HETATM   16  C16 UNK   900      23.875 -25.251 -76.422  1.00  0.00     0.048 C 
ENDROOT
BRANCH   6  17
HETATM   17  C11 UNK   900      21.746 -18.019 -72.675  1.00  0.00     0.208 C 
BRANCH  17  18
HETATM   18  O2  UNK   900      20.335 -18.190 -72.702  1.00  0.00    -0.391 OA
HETATM   19  C17 UNK   900      19.775 -17.711 -73.917  1.00  0.00     0.201 C 
ENDBRANCH  17  18
ENDBRANCH   6  17
TORSDOF 2
ENDMDL
MODEL 8
REMARK VINA RESULT:      -5.9     26.157     26.454
REMARK  2 active torsions:
REMARK  status: ('A' for Active; 'I' for Inactive)
REMARK    1  A    between atoms: O2_2  and  C11_13 
REMARK    2  A    between atoms: C5_7  and  C11_13 
ROOT
HETATM    1  O1  UNK   900       4.464 -45.528 -61.413  1.00  0.00    -0.309 OA
HETATM    2  C1  UNK   900       2.986 -43.030 -61.799  1.00  0.00     0.083 A 
HETATM    3  C2  UNK   900       2.769 -43.952 -60.635  1.00  0.00    -0.019 A 
HETATM    4  C3  UNK   900       3.509 -45.131 -60.508  1.00  0.00     0.091 A 
HETATM    5  C4  UNK   900       4.039 -43.526 -62.745  1.00  0.00    -0.019 A 
HETATM    6  C5  UNK   900       3.299 -45.982 -59.419  1.00  0.00     0.000 A 
HETATM    7  C6  UNK   900       4.710 -44.728 -62.503  1.00  0.00     0.082 A 
HETATM    8  C7  UNK   900       1.817 -43.633 -59.658  1.00  0.00     0.017 A 
HETATM    9  C8  UNK   900       1.607 -44.483 -58.571  1.00  0.00    -0.061 A 
HETATM   10  C9  UNK   900       2.349 -45.658 -58.452  1.00  0.00     0.019 A 
HETATM   11  C10 UNK   900       4.362 -42.781 -63.887  1.00  0.00     0.017 A 
HETATM   12  C12 UNK   900       5.340 -43.233 -64.772  1.00  0.00    -0.061 A 
HETATM   13  C13 UNK   900       5.689 -45.181 -63.392  1.00  0.00     0.038 A 
HETATM   14  C14 UNK   900       6.004 -44.432 -64.525  1.00  0.00     0.009 A 
HETATM   15  C15 UNK   900       0.590 -44.135 -57.537  1.00  0.00     0.048 C 
HETATM   16  C16 UNK   900       5.676 -42.431 -65.985  1.00  0.00     0.048 C 
ENDROOT
BRANCH   6  17
HETATM   17  C11 UNK   900       4.079 -47.247 -59.266  1.00  0.00     0.208 C 
BRANCH  17  18
HETATM   18  O2  UNK   900       3.214 -48.359 -59.452  1.00  0.00    -0.391 OA
HETATM   19  C17 UNK   900       3.316 -49.285 -58.379  1.00  0.00     0.201 C 
ENDBRANCH  17  18
ENDBRANCH   6  17
TORSDOF 2
ENDMDL
MODEL 9
REMARK VINA RESULT:      -5.9     38.382     40.144
REMARK  2 active torsions:
REMARK  status: ('A' for Active; 'I' for Inactive)
REMARK    1  A    between atoms: O2_2  and  C11_13 
REMARK    2  A    between atoms: C5_7  and  C11_13 
ROOT
HETATM    1  O1  UNK   900       6.757 -51.690 -78.858  1.00  0.00    -0.309 OA
HETATM    2  C1  UNK   900       6.018 -53.507 -81.032  1.00  0.00     0.083 A 
HETATM    3  C2  UNK   900       7.167 -53.753 -80.098  1.00  0.00    -0.019 A 
HETATM    4  C3  UNK   900       7.468 -52.845 -79.079  1.00  0.00     0.091 A 
HETATM    5  C4  UNK   900       5.290 -52.230 -80.734  1.00  0.00    -0.019 A 
HETATM    6  C5  UNK   900       8.540 -53.084 -78.215  1.00  0.00     0.000 A 
HETATM    7  C6  UNK   900       5.692 -51.405 -79.680  1.00  0.00     0.082 A 
HETATM    8  C7  UNK   900       7.951 -54.904 -80.243  1.00  0.00     0.017 A 
HETATM    9  C8  UNK   900       9.022 -55.143 -79.380  1.00  0.00    -0.061 A 
HETATM   10  C9  UNK   900       9.316 -54.233 -78.366  1.00  0.00     0.019 A 
HETATM   11  C10 UNK   900       4.190 -51.851 -81.516  1.00  0.00     0.017 A 
HETATM   12  C12 UNK   900       3.506 -50.666 -81.247  1.00  0.00    -0.061 A 
HETATM   13  C13 UNK   900       5.006 -50.217 -79.412  1.00  0.00     0.038 A 
HETATM   14  C14 UNK   900       3.914 -49.849 -80.195  1.00  0.00     0.009 A 
HETATM   15  C15 UNK   900       9.852 -56.372 -79.543  1.00  0.00     0.048 C 
HETATM   16  C16 UNK   900       2.336 -50.274 -82.086  1.00  0.00     0.048 C 
ENDROOT
BRANCH   6  17
HETATM   17  C11 UNK   900       8.878 -52.126 -77.120  1.00  0.00     0.208 C 
BRANCH  17  18
HETATM   18  O2  UNK   900      10.061 -52.560 -76.463  1.00  0.00    -0.391 OA
HETATM   19  C17 UNK   900       9.837 -52.776 -75.076  1.00  0.00     0.201 C 
ENDBRANCH  17  18
ENDBRANCH   6  17
TORSDOF 2
ENDMDL
