MODEL 1
REMARK VINA RESULT:      -7.0      0.000      0.000
REMARK  2 active torsions:
REMARK  status: ('A' for Active; 'I' for Inactive)
REMARK    1  A    between atoms: O1_1  and  C1_5 
REMARK    2  A    between atoms: O2_2  and  C8_12 
ROOT
HETATM    1  O3  UNK   900      32.062 -37.531 -55.737  1.00  0.00    -0.292 OA
HETATM    2  N1  UNK   900      35.198 -33.970 -60.098  1.00  0.00    -0.265 NA
HETATM    3  C1  UNK   900      35.886 -39.141 -56.144  1.00  0.00     0.152 C 
HETATM    4  C2  UNK   900      35.444 -37.947 -56.948  1.00  0.00    -0.012 A 
HETATM    5  C3  UNK   900      34.698 -40.021 -55.764  1.00  0.00     0.044 C 
HETATM    6  C4  UNK   900      34.153 -37.414 -56.824  1.00  0.00     0.053 A 
HETATM    7  C5  UNK   900      33.619 -39.212 -55.059  1.00  0.00     0.087 C 
HETATM    8  C6  UNK   900      33.178 -38.021 -55.880  1.00  0.00     0.163 C 
HETATM    9  C7  UNK   900      36.352 -37.334 -57.827  1.00  0.00     0.023 A 
HETATM   10  C8  UNK   900      33.771 -36.298 -57.578  1.00  0.00     0.092 A 
HETATM   11  C9  UNK   900      35.984 -36.214 -58.589  1.00  0.00    -0.019 A 
HETATM   12  C10 UNK   900      34.681 -35.695 -58.462  1.00  0.00     0.026 A 
HETATM   13  C11 UNK   900      36.876 -35.595 -59.474  1.00  0.00     0.039 A 
HETATM   14  C12 UNK   900      34.352 -34.581 -59.238  1.00  0.00     0.132 A 
HETATM   15  C13 UNK   900      36.439 -34.494 -60.192  1.00  0.00     0.031 A 
HETATM   16  C14 UNK   900      37.374 -33.822 -61.141  1.00  0.00     0.070 C 
ENDROOT
BRANCH   3  17
HETATM   17  O1  UNK   900      36.547 -38.670 -54.973  1.00  0.00    -0.391 OA
HETATM   18  H8  UNK   900      36.810 -39.447 -54.452  1.00  0.00     0.210 HD
ENDBRANCH   3  17
BRANCH  10  19
HETATM   19  O2  UNK   900      32.514 -35.771 -57.475  1.00  0.00    -0.359 OA
HETATM   20  H10 UNK   900      31.872 -36.457 -57.242  1.00  0.00     0.217 HD
ENDBRANCH  10  19
TORSDOF 2
ENDMDL
MODEL 2
REMARK VINA RESULT:      -6.8     29.039     29.857
REMARK  2 active torsions:
REMARK  status: ('A' for Active; 'I' for Inactive)
REMARK    1  A    between atoms: O1_1  and  C1_5 
REMARK    2  A    between atoms: O2_2  and  C8_12 
ROOT
HETATM    1  O3  UNK   900      30.997 -49.345 -85.701  1.00  0.00    -0.292 OA
HETATM    2  N1  UNK   900      25.262 -46.520 -84.887  1.00  0.00    -0.265 NA
HETATM    3  C1  UNK   900      29.570 -50.479 -81.951  1.00  0.00     0.152 C 
HETATM    4  C2  UNK   900      28.787 -49.554 -82.846  1.00  0.00    -0.012 A 
HETATM    5  C3  UNK   900      31.068 -50.372 -82.224  1.00  0.00     0.044 C 
HETATM    6  C4  UNK   900      29.273 -49.160 -84.101  1.00  0.00     0.053 A 
HETATM    7  C5  UNK   900      31.374 -50.593 -83.699  1.00  0.00     0.087 C 
HETATM    8  C6  UNK   900      30.588 -49.654 -84.586  1.00  0.00     0.163 C 
HETATM    9  C7  UNK   900      27.528 -49.093 -82.428  1.00  0.00     0.023 A 
HETATM   10  C8  UNK   900      28.520 -48.306 -84.916  1.00  0.00     0.092 A 
HETATM   11  C9  UNK   900      26.761 -48.238 -83.235  1.00  0.00    -0.019 A 
HETATM   12  C10 UNK   900      27.266 -47.841 -84.488  1.00  0.00     0.026 A 
HETATM   13  C11 UNK   900      25.507 -47.765 -82.830  1.00  0.00     0.039 A 
HETATM   14  C12 UNK   900      26.474 -46.988 -85.261  1.00  0.00     0.132 A 
HETATM   15  C13 UNK   900      24.810 -46.922 -83.681  1.00  0.00     0.031 A 
HETATM   16  C14 UNK   900      23.472 -46.408 -83.266  1.00  0.00     0.070 C 
ENDROOT
BRANCH   3  17
HETATM   17  O1  UNK   900      29.118 -51.810 -82.181  1.00  0.00    -0.391 OA
HETATM   18  H8  UNK   900      29.904 -52.373 -82.282  1.00  0.00     0.210 HD
ENDBRANCH   3  17
BRANCH  10  19
HETATM   19  O2  UNK   900      28.983 -47.904 -86.139  1.00  0.00    -0.359 OA
HETATM   20  H10 UNK   900      29.005 -46.938 -86.197  1.00  0.00     0.217 HD
ENDBRANCH  10  19
TORSDOF 2
ENDMDL
MODEL 3
REMARK VINA RESULT:      -6.1     23.710     24.274
REMARK  2 active torsions:
REMARK  status: ('A' for Active; 'I' for Inactive)
REMARK    1  A    between atoms: O1_1  and  C1_5 
REMARK    2  A    between atoms: O2_2  and  C8_12 
ROOT
HETATM    1  O3  UNK   900      25.957 -24.161 -76.612  1.00  0.00    -0.292 OA
HETATM    2  N1  UNK   900      27.613 -19.880 -72.089  1.00  0.00    -0.265 NA
HETATM    3  C1  UNK   900      22.609 -23.527 -74.210  1.00  0.00     0.152 C 
HETATM    4  C2  UNK   900      23.914 -22.826 -73.943  1.00  0.00    -0.012 A 
HETATM    5  C3  UNK   900      22.835 -24.865 -74.908  1.00  0.00     0.044 C 
HETATM    6  C4  UNK   900      25.046 -23.050 -74.741  1.00  0.00     0.053 A 
HETATM    7  C5  UNK   900      23.670 -24.693 -76.168  1.00  0.00     0.087 C 
HETATM    8  C6  UNK   900      24.981 -23.995 -75.886  1.00  0.00     0.163 C 
HETATM    9  C7  UNK   900      23.998 -21.905 -72.886  1.00  0.00     0.023 A 
HETATM   10  C8  UNK   900      26.245 -22.377 -74.475  1.00  0.00     0.092 A 
HETATM   11  C9  UNK   900      25.193 -21.222 -72.608  1.00  0.00    -0.019 A 
HETATM   12  C10 UNK   900      26.324 -21.465 -73.410  1.00  0.00     0.026 A 
HETATM   13  C11 UNK   900      25.294 -20.305 -71.554  1.00  0.00     0.039 A 
HETATM   14  C12 UNK   900      27.495 -20.768 -73.101  1.00  0.00     0.132 A 
HETATM   15  C13 UNK   900      26.508 -19.672 -71.342  1.00  0.00     0.031 A 
HETATM   16  C14 UNK   900      26.635 -18.693 -70.223  1.00  0.00     0.070 C 
ENDROOT
BRANCH   3  17
HETATM   17  O1  UNK   900      21.803 -22.676 -75.020  1.00  0.00    -0.391 OA
HETATM   18  H8  UNK   900      21.905 -21.769 -74.685  1.00  0.00     0.210 HD
ENDBRANCH   3  17
BRANCH  10  19
HETATM   19  O2  UNK   900      27.360 -22.591 -75.237  1.00  0.00    -0.359 OA
HETATM   20  H10 UNK   900      28.142 -22.204 -74.817  1.00  0.00     0.217 HD
ENDBRANCH  10  19
TORSDOF 2
ENDMDL
MODEL 4
REMARK VINA RESULT:      -5.9     32.918     34.574
REMARK  2 active torsions:
REMARK  status: ('A' for Active; 'I' for Inactive)
REMARK    1  A    between atoms: O1_1  and  C1_5 
REMARK    2  A    between atoms: O2_2  and  C8_12 
ROOT
HETATM    1  O3  UNK   900      10.305 -28.645 -81.726  1.00  0.00    -0.292 OA
HETATM    2  N1  UNK   900      12.674 -22.702 -82.502  1.00  0.00    -0.265 NA
HETATM    3  C1  UNK   900      11.161 -27.139 -77.934  1.00  0.00     0.152 C 
HETATM    4  C2  UNK   900      11.425 -26.335 -79.179  1.00  0.00    -0.012 A 
HETATM    5  C3  UNK   900      11.230 -28.637 -78.220  1.00  0.00     0.044 C 
HETATM    6  C4  UNK   900      11.152 -26.846 -80.456  1.00  0.00     0.053 A 
HETATM    7  C5  UNK   900      10.305 -29.020 -79.366  1.00  0.00     0.087 C 
HETATM    8  C6  UNK   900      10.585 -28.211 -80.613  1.00  0.00     0.163 C 
HETATM    9  C7  UNK   900      11.932 -25.030 -79.062  1.00  0.00     0.023 A 
HETATM   10  C8  UNK   900      11.399 -26.072 -81.597  1.00  0.00     0.092 A 
HETATM   11  C9  UNK   900      12.184 -24.242 -80.196  1.00  0.00    -0.019 A 
HETATM   12  C10 UNK   900      11.915 -24.772 -81.473  1.00  0.00     0.026 A 
HETATM   13  C11 UNK   900      12.695 -22.942 -80.097  1.00  0.00     0.039 A 
HETATM   14  C12 UNK   900      12.180 -23.958 -82.577  1.00  0.00     0.132 A 
HETATM   15  C13 UNK   900      12.918 -22.227 -81.262  1.00  0.00     0.031 A 
HETATM   16  C14 UNK   900      13.464 -20.841 -81.175  1.00  0.00     0.070 C 
ENDROOT
BRANCH   3  17
HETATM   17  O1  UNK   900       9.871 -26.789 -77.441  1.00  0.00    -0.391 OA
HETATM   18  H8  UNK   900       9.662 -25.900 -77.774  1.00  0.00     0.210 HD
ENDBRANCH   3  17
BRANCH  10  19
HETATM   19  O2  UNK   900      11.146 -26.558 -82.850  1.00  0.00    -0.359 OA
HETATM   20  H10 UNK   900      11.115 -27.526 -82.843  1.00  0.00     0.217 HD
ENDBRANCH  10  19
TORSDOF 2
ENDMDL
MODEL 5
REMARK VINA RESULT:      -5.8      2.771      4.092
REMARK  2 active torsions:
REMARK  status: ('A' for Active; 'I' for Inactive)
REMARK    1  A    between atoms: O1_1  and  C1_5 
REMARK    2  A    between atoms: O2_2  and  C8_12 
ROOT
HETATM    1  O3  UNK   900      36.843 -37.473 -59.614  1.00  0.00    -0.292 OA
HETATM    2  N1  UNK   900      36.422 -31.109 -60.539  1.00  0.00    -0.265 NA
HETATM    3  C1  UNK   900      34.319 -35.949 -56.667  1.00  0.00     0.152 C 
HETATM    4  C2  UNK   900      34.963 -35.054 -57.692  1.00  0.00    -0.012 A 
HETATM    5  C3  UNK   900      35.164 -37.194 -56.412  1.00  0.00     0.044 C 
HETATM    6  C4  UNK   900      35.825 -35.563 -58.675  1.00  0.00     0.053 A 
HETATM    7  C5  UNK   900      35.470 -37.925 -57.711  1.00  0.00     0.087 C 
HETATM    8  C6  UNK   900      36.124 -37.018 -58.730  1.00  0.00     0.163 C 
HETATM    9  C7  UNK   900      34.677 -33.679 -57.684  1.00  0.00     0.023 A 
HETATM   10  C8  UNK   900      36.403 -34.709 -59.621  1.00  0.00     0.092 A 
HETATM   11  C9  UNK   900      35.249 -32.811 -58.627  1.00  0.00    -0.019 A 
HETATM   12  C10 UNK   900      36.120 -33.334 -59.602  1.00  0.00     0.026 A 
HETATM   13  C11 UNK   900      34.978 -31.437 -58.629  1.00  0.00     0.039 A 
HETATM   14  C12 UNK   900      36.670 -32.438 -60.522  1.00  0.00     0.132 A 
HETATM   15  C13 UNK   900      35.581 -30.644 -59.592  1.00  0.00     0.031 A 
HETATM   16  C14 UNK   900      35.306 -29.177 -59.608  1.00  0.00     0.070 C 
ENDROOT
BRANCH   3  17
HETATM   17  O1  UNK   900      33.027 -36.317 -57.144  1.00  0.00    -0.391 OA
HETATM   18  H8  UNK   900      32.486 -35.510 -57.174  1.00  0.00     0.210 HD
ENDBRANCH   3  17
BRANCH  10  19
HETATM   19  O2  UNK   900      37.252 -35.188 -60.581  1.00  0.00    -0.359 OA
HETATM   20  H10 UNK   900      38.153 -34.864 -60.434  1.00  0.00     0.217 HD
ENDBRANCH  10  19
TORSDOF 2
ENDMDL
MODEL 6
REMARK VINA RESULT:      -5.8     28.993     29.750
REMARK  2 active torsions:
REMARK  status: ('A' for Active; 'I' for Inactive)
REMARK    1  A    between atoms: O1_1  and  C1_5 
REMARK    2  A    between atoms: O2_2  and  C8_12 
ROOT
HETATM    1  O3  UNK   900      32.638 -50.920 -85.226  1.00  0.00    -0.292 OA
HETATM    2  N1  UNK   900      27.181 -47.502 -84.959  1.00  0.00    -0.265 NA
HETATM    3  C1  UNK   900      30.946 -51.563 -81.470  1.00  0.00     0.152 C 
HETATM    4  C2  UNK   900      30.298 -50.655 -82.481  1.00  0.00    -0.012 A 
HETATM    5  C3  UNK   900      32.458 -51.625 -81.674  1.00  0.00     0.044 C 
HETATM    6  C4  UNK   900      30.874 -50.426 -83.739  1.00  0.00     0.053 A 
HETATM    7  C5  UNK   900      32.803 -52.009 -83.105  1.00  0.00     0.087 C 
HETATM    8  C6  UNK   900      32.153 -51.085 -84.110  1.00  0.00     0.163 C 
HETATM    9  C7  UNK   900      29.074 -50.040 -82.171  1.00  0.00     0.023 A 
HETATM   10  C8  UNK   900      30.245 -49.583 -84.664  1.00  0.00     0.092 A 
HETATM   11  C9  UNK   900      28.431 -49.194 -83.088  1.00  0.00    -0.019 A 
HETATM   12  C10 UNK   900      29.025 -48.964 -84.343  1.00  0.00     0.026 A 
HETATM   13  C11 UNK   900      27.213 -48.569 -82.791  1.00  0.00     0.039 A 
HETATM   14  C12 UNK   900      28.356 -48.115 -85.227  1.00  0.00     0.132 A 
HETATM   15  C13 UNK   900      26.640 -47.747 -83.747  1.00  0.00     0.031 A 
HETATM   16  C14 UNK   900      25.343 -47.072 -83.448  1.00  0.00     0.070 C 
ENDROOT
BRANCH   3  17
HETATM   17  O1  UNK   900      30.375 -52.861 -81.605  1.00  0.00    -0.391 OA
HETATM   18  H8  UNK   900      31.076 -53.510 -81.426  1.00  0.00     0.210 HD
ENDBRANCH   3  17
BRANCH  10  19
HETATM   19  O2  UNK   900      30.797 -49.342 -85.891  1.00  0.00    -0.359 OA
HETATM   20  H10 UNK   900      31.679 -48.952 -85.801  1.00  0.00     0.217 HD
ENDBRANCH  10  19
TORSDOF 2
ENDMDL
MODEL 7
REMARK VINA RESULT:      -5.6      5.128      7.750
REMARK  2 active torsions:
REMARK  status: ('A' for Active; 'I' for Inactive)
REMARK    1  A    between atoms: O1_1  and  C1_5 
REMARK    2  A    between atoms: O2_2  and  C8_12 
ROOT
HETATM    1  O3  UNK   900      36.856 -33.864 -61.502  1.00  0.00    -0.292 OA
HETATM    2  N1  UNK   900      38.834 -27.775 -62.234  1.00  0.00    -0.265 NA
HETATM    3  C1  UNK   900      35.121 -31.614 -58.451  1.00  0.00     0.152 C 
HETATM    4  C2  UNK   900      36.041 -30.989 -59.466  1.00  0.00    -0.012 A 
HETATM    5  C3  UNK   900      35.443 -33.093 -58.253  1.00  0.00     0.044 C 
HETATM    6  C4  UNK   900      36.637 -31.747 -60.484  1.00  0.00     0.053 A 
HETATM    7  C5  UNK   900      35.437 -33.839 -59.580  1.00  0.00     0.087 C 
HETATM    8  C6  UNK   900      36.370 -33.205 -60.588  1.00  0.00     0.163 C 
HETATM    9  C7  UNK   900      36.290 -29.608 -59.411  1.00  0.00     0.023 A 
HETATM   10  C8  UNK   900      37.482 -31.138 -61.419  1.00  0.00     0.092 A 
HETATM   11  C9  UNK   900      37.133 -28.982 -60.343  1.00  0.00    -0.019 A 
HETATM   12  C10 UNK   900      37.734 -29.758 -61.353  1.00  0.00     0.026 A 
HETATM   13  C11 UNK   900      37.396 -27.608 -60.298  1.00  0.00     0.039 A 
HETATM   14  C12 UNK   900      38.568 -29.100 -62.261  1.00  0.00     0.132 A 
HETATM   15  C13 UNK   900      38.240 -27.063 -61.253  1.00  0.00     0.031 A 
HETATM   16  C14 UNK   900      38.533 -25.600 -61.220  1.00  0.00     0.070 C 
ENDROOT
BRANCH   3  17
HETATM   17  O1  UNK   900      33.781 -31.456 -58.906  1.00  0.00    -0.391 OA
HETATM   18  H8  UNK   900      33.708 -30.571 -59.302  1.00  0.00     0.210 HD
ENDBRANCH   3  17
BRANCH  10  19
HETATM   19  O2  UNK   900      38.078 -31.864 -62.413  1.00  0.00    -0.359 OA
HETATM   20  H10 UNK   900      38.371 -31.285 -63.132  1.00  0.00     0.217 HD
ENDBRANCH  10  19
TORSDOF 2
ENDMDL
MODEL 8
REMARK VINA RESULT:      -5.4     30.868     32.681
REMARK  2 active torsions:
REMARK  status: ('A' for Active; 'I' for Inactive)
REMARK    1  A    between atoms: O1_1  and  C1_5 
REMARK    2  A    between atoms: O2_2  and  C8_12 
ROOT
HETATM    1  O3  UNK   900       7.632 -29.668 -74.638  1.00  0.00    -0.292 OA
HETATM    2  N1  UNK   900       9.138 -27.942 -80.661  1.00  0.00    -0.265 NA
HETATM    3  C1  UNK   900      11.791 -29.660 -74.930  1.00  0.00     0.152 C 
HETATM    4  C2  UNK   900      10.918 -29.317 -76.107  1.00  0.00    -0.012 A 
HETATM    5  C3  UNK   900      11.071 -30.599 -73.965  1.00  0.00     0.044 C 
HETATM    6  C4  UNK   900       9.518 -29.334 -76.015  1.00  0.00     0.053 A 
HETATM    7  C5  UNK   900       9.726 -30.027 -73.543  1.00  0.00     0.087 C 
HETATM    8  C6  UNK   900       8.855 -29.693 -74.734  1.00  0.00     0.163 C 
HETATM    9  C7  UNK   900      11.515 -28.944 -77.323  1.00  0.00     0.023 A 
HETATM   10  C8  UNK   900       8.731 -29.001 -77.124  1.00  0.00     0.092 A 
HETATM   11  C9  UNK   900      10.738 -28.607 -78.443  1.00  0.00    -0.019 A 
HETATM   12  C10 UNK   900       9.334 -28.639 -78.339  1.00  0.00     0.026 A 
HETATM   13  C11 UNK   900      11.319 -28.240 -79.663  1.00  0.00     0.039 A 
HETATM   14  C12 UNK   900       8.596 -28.299 -79.475  1.00  0.00     0.132 A 
HETATM   15  C13 UNK   900      10.486 -27.922 -80.723  1.00  0.00     0.031 A 
HETATM   16  C14 UNK   900      11.086 -27.529 -82.032  1.00  0.00     0.070 C 
ENDROOT
BRANCH   3  17
HETATM   17  O1  UNK   900      12.146 -28.449 -74.269  1.00  0.00    -0.391 OA
HETATM   18  H8  UNK   900      13.115 -28.428 -74.196  1.00  0.00     0.210 HD
ENDBRANCH   3  17
BRANCH  10  19
HETATM   19  O2  UNK   900       7.365 -29.021 -77.053  1.00  0.00    -0.359 OA
HETATM   20  H10 UNK   900       7.060 -28.657 -76.209  1.00  0.00     0.217 HD
ENDBRANCH  10  19
TORSDOF 2
ENDMDL
MODEL 9
REMARK VINA RESULT:      -5.4     37.178     39.767
REMARK  2 active torsions:
REMARK  status: ('A' for Active; 'I' for Inactive)
REMARK    1  A    between atoms: O1_1  and  C1_5 
REMARK    2  A    between atoms: O2_2  and  C8_12 
ROOT
HETATM    1  O3  UNK   900      16.269 -75.446 -55.581  1.00  0.00    -0.292 OA
HETATM    2  N1  UNK   900      21.735 -72.332 -56.980  1.00  0.00    -0.265 NA
HETATM    3  C1  UNK   900      16.470 -72.103 -53.098  1.00  0.00     0.152 C 
HETATM    4  C2  UNK   900      17.561 -72.416 -54.088  1.00  0.00    -0.012 A 
HETATM    5  C3  UNK   900      15.750 -73.373 -52.652  1.00  0.00     0.044 C 
HETATM    6  C4  UNK   900      17.501 -73.548 -54.913  1.00  0.00     0.053 A 
HETATM    7  C5  UNK   900      15.239 -74.163 -53.848  1.00  0.00     0.087 C 
HETATM    8  C6  UNK   900      16.345 -74.477 -54.831  1.00  0.00     0.163 C 
HETATM    9  C7  UNK   900      18.652 -71.541 -54.210  1.00  0.00     0.023 A 
HETATM   10  C8  UNK   900      18.526 -73.809 -55.832  1.00  0.00     0.092 A 
HETATM   11  C9  UNK   900      19.686 -71.789 -55.127  1.00  0.00    -0.019 A 
HETATM   12  C10 UNK   900      19.619 -72.935 -55.942  1.00  0.00     0.026 A 
HETATM   13  C11 UNK   900      20.784 -70.929 -55.256  1.00  0.00     0.039 A 
HETATM   14  C12 UNK   900      20.667 -73.149 -56.841  1.00  0.00     0.132 A 
HETATM   15  C13 UNK   900      21.765 -71.243 -56.183  1.00  0.00     0.031 A 
HETATM   16  C14 UNK   900      22.943 -70.339 -56.334  1.00  0.00     0.070 C 
ENDROOT
BRANCH   3  17
HETATM   17  O1  UNK   900      15.552 -71.204 -53.713  1.00  0.00    -0.391 OA
HETATM   18  H8  UNK   900      15.956 -70.320 -53.701  1.00  0.00     0.210 HD
ENDBRANCH   3  17
BRANCH  10  19
HETATM   19  O2  UNK   900      18.488 -74.914 -56.638  1.00  0.00    -0.359 OA
HETATM   20  H10 UNK   900      18.963 -74.750 -57.466  1.00  0.00     0.217 HD
ENDBRANCH  10  19
TORSDOF 2
ENDMDL
