MODEL 1
REMARK VINA RESULT:      -5.7      0.000      0.000
REMARK  6 active torsions:
REMARK  status: ('A' for Active; 'I' for Inactive)
REMARK    1  A    between atoms: O1_1  and  C8_12 
REMARK    2  A    between atoms: O3_3  and  C10_14 
REMARK    3  A    between atoms: C1_5  and  C7_11 
REMARK    4  A    between atoms: C1_5  and  C8_12 
REMARK    5  A    between atoms: C6_10  and  C9_13 
REMARK    6  A    between atoms: C7_11  and  C10_14 
ROOT
HETATM    1  C1  UNK   900      30.842 -49.064 -61.903  1.00  0.00     0.072 C 
HETATM    2  C2  UNK   900      29.660 -48.429 -62.664  1.00  0.00     0.025 C 
HETATM    3  C3  UNK   900      30.058 -47.149 -63.395  1.00  0.00     0.006 C 
HETATM    4  C4  UNK   900      30.667 -46.124 -62.439  1.00  0.00     0.034 C 
HETATM    5  C5  UNK   900      31.745 -48.041 -61.258  1.00  0.00    -0.003 C 
HETATM    6  C6  UNK   900      31.665 -46.717 -61.478  1.00  0.00    -0.083 C 
ENDROOT
BRANCH   1   7
HETATM    7  C7  UNK   900      30.312 -50.052 -60.858  1.00  0.00     0.135 C 
BRANCH   7   8
HETATM    8  C10 UNK   900      30.914 -49.800 -59.502  1.00  0.00     0.259 C 
HETATM    9  O4  UNK   900      30.428 -49.100 -58.623  1.00  0.00    -0.265 OA
BRANCH   8  10
HETATM   10  O3  UNK   900      32.094 -50.484 -59.421  1.00  0.00    -0.326 OA
HETATM   11  C12 UNK   900      32.009 -51.890 -59.678  1.00  0.00     0.213 C 
ENDBRANCH   8  10
ENDBRANCH   7   8
ENDBRANCH   1   7
BRANCH   1  12
HETATM   12  C8  UNK   900      31.727 -49.821 -62.860  1.00  0.00     0.153 C 
HETATM   13  O2  UNK   900      31.363 -50.301 -63.924  1.00  0.00    -0.649 OA
BRANCH  12  14
HETATM   14  O1  UNK   900      32.992 -49.902 -62.380  1.00  0.00    -0.776 OA
HETATM   15  H15 UNK   900      33.278 -49.064 -61.957  1.00  0.00     0.167 HD
ENDBRANCH  12  14
ENDBRANCH   1  12
BRANCH   6  16
HETATM   16  C9  UNK   900      32.561 -45.742 -60.773  1.00  0.00     0.029 C 
HETATM   17  C11 UNK   900      31.823 -44.992 -59.682  1.00  0.00     0.010 C 
ENDBRANCH   6  16
TORSDOF 6
ENDMDL
MODEL 2
REMARK VINA RESULT:      -5.4      1.595      3.431
REMARK  6 active torsions:
REMARK  status: ('A' for Active; 'I' for Inactive)
REMARK    1  A    between atoms: O1_1  and  C8_12 
REMARK    2  A    between atoms: O3_3  and  C10_14 
REMARK    3  A    between atoms: C1_5  and  C7_11 
REMARK    4  A    between atoms: C1_5  and  C8_12 
REMARK    5  A    between atoms: C6_10  and  C9_13 
REMARK    6  A    between atoms: C7_11  and  C10_14 
ROOT
HETATM    1  C1  UNK   900      31.191 -49.193 -60.652  1.00  0.00     0.072 C 
HETATM    2  C2  UNK   900      32.245 -48.333 -59.926  1.00  0.00     0.025 C 
HETATM    3  C3  UNK   900      31.771 -46.900 -59.695  1.00  0.00     0.006 C 
HETATM    4  C4  UNK   900      31.370 -46.225 -61.007  1.00  0.00     0.034 C 
HETATM    5  C5  UNK   900      30.447 -48.432 -61.723  1.00  0.00    -0.003 C 
HETATM    6  C6  UNK   900      30.533 -47.102 -61.902  1.00  0.00    -0.083 C 
ENDROOT
BRANCH   1   7
HETATM    7  C7  UNK   900      31.859 -50.439 -61.242  1.00  0.00     0.135 C 
BRANCH   7   8
HETATM    8  C10 UNK   900      33.067 -50.851 -60.444  1.00  0.00     0.259 C 
HETATM    9  O4  UNK   900      33.057 -51.239 -59.283  1.00  0.00    -0.265 OA
BRANCH   8  10
HETATM   10  O3  UNK   900      34.172 -50.717 -61.235  1.00  0.00    -0.326 OA
HETATM   11  C12 UNK   900      35.350 -51.381 -60.765  1.00  0.00     0.213 C 
ENDBRANCH   8  10
ENDBRANCH   7   8
ENDBRANCH   1   7
BRANCH   1  12
HETATM   12  C8  UNK   900      30.130 -49.642 -59.681  1.00  0.00     0.153 C 
HETATM   13  O2  UNK   900      30.234 -49.613 -58.463  1.00  0.00    -0.649 OA
BRANCH  12  14
HETATM   14  O1  UNK   900      29.034 -50.089 -60.342  1.00  0.00    -0.776 OA
HETATM   15  H15 UNK   900      28.633 -50.869 -59.903  1.00  0.00     0.167 HD
ENDBRANCH  12  14
ENDBRANCH   1  12
BRANCH   6  16
HETATM   16  C9  UNK   900      29.805 -46.404 -63.013  1.00  0.00     0.029 C 
HETATM   17  C11 UNK   900      29.563 -47.327 -64.191  1.00  0.00     0.010 C 
ENDBRANCH   6  16
TORSDOF 6
ENDMDL
MODEL 3
REMARK VINA RESULT:      -5.2      1.896      4.535
REMARK  6 active torsions:
REMARK  status: ('A' for Active; 'I' for Inactive)
REMARK    1  A    between atoms: O1_1  and  C8_12 
REMARK    2  A    between atoms: O3_3  and  C10_14 
REMARK    3  A    between atoms: C1_5  and  C7_11 
REMARK    4  A    between atoms: C1_5  and  C8_12 
REMARK    5  A    between atoms: C6_10  and  C9_13 
REMARK    6  A    between atoms: C7_11  and  C10_14 
ROOT
HETATM    1  C1  UNK   900      31.112 -48.361 -61.627  1.00  0.00     0.072 C 
HETATM    2  C2  UNK   900      29.869 -49.261 -61.475  1.00  0.00     0.025 C 
HETATM    3  C3  UNK   900      29.798 -49.930 -60.103  1.00  0.00     0.006 C 
HETATM    4  C4  UNK   900      31.061 -50.738 -59.809  1.00  0.00     0.034 C 
HETATM    5  C5  UNK   900      32.342 -48.940 -60.974  1.00  0.00    -0.003 C 
HETATM    6  C6  UNK   900      32.334 -50.018 -60.169  1.00  0.00    -0.083 C 
ENDROOT
BRANCH   1   7
HETATM    7  C7  UNK   900      31.369 -48.084 -63.112  1.00  0.00     0.135 C 
BRANCH   7   8
HETATM    8  C10 UNK   900      31.955 -49.285 -63.806  1.00  0.00     0.259 C 
HETATM    9  O4  UNK   900      31.389 -50.356 -63.980  1.00  0.00    -0.265 OA
BRANCH   8  10
HETATM   10  O3  UNK   900      33.223 -48.974 -64.208  1.00  0.00    -0.326 OA
HETATM   11  C12 UNK   900      33.443 -47.601 -64.547  1.00  0.00     0.213 C 
ENDBRANCH   8  10
ENDBRANCH   7   8
ENDBRANCH   1   7
BRANCH   1  12
HETATM   12  C8  UNK   900      30.884 -47.041 -60.935  1.00  0.00     0.153 C 
HETATM   13  O2  UNK   900      30.043 -46.215 -61.257  1.00  0.00    -0.649 OA
BRANCH  12  14
HETATM   14  O1  UNK   900      31.745 -46.890 -59.899  1.00  0.00    -0.776 OA
HETATM   15  H15 UNK   900      32.171 -47.737 -59.648  1.00  0.00     0.167 HD
ENDBRANCH  12  14
ENDBRANCH   1  12
BRANCH   6  16
HETATM   16  C9  UNK   900      33.596 -50.578 -59.582  1.00  0.00     0.029 C 
HETATM   17  C11 UNK   900      33.469 -52.060 -59.293  1.00  0.00     0.010 C 
ENDBRANCH   6  16
TORSDOF 6
ENDMDL
MODEL 4
REMARK VINA RESULT:      -4.9     30.286     32.263
REMARK  6 active torsions:
REMARK  status: ('A' for Active; 'I' for Inactive)
REMARK    1  A    between atoms: O1_1  and  C8_12 
REMARK    2  A    between atoms: O3_3  and  C10_14 
REMARK    3  A    between atoms: C1_5  and  C7_11 
REMARK    4  A    between atoms: C1_5  and  C8_12 
REMARK    5  A    between atoms: C6_10  and  C9_13 
REMARK    6  A    between atoms: C7_11  and  C10_14 
ROOT
HETATM    1  C1  UNK   900       7.781 -67.340 -51.343  1.00  0.00     0.072 C 
HETATM    2  C2  UNK   900       7.555 -66.579 -50.020  1.00  0.00     0.025 C 
HETATM    3  C3  UNK   900       8.750 -66.685 -49.075  1.00  0.00     0.006 C 
HETATM    4  C4  UNK   900       9.101 -68.143 -48.778  1.00  0.00     0.034 C 
HETATM    5  C5  UNK   900       8.516 -68.644 -51.153  1.00  0.00    -0.003 C 
HETATM    6  C6  UNK   900       9.098 -69.022 -50.002  1.00  0.00    -0.083 C 
ENDROOT
BRANCH   1   7
HETATM    7  C7  UNK   900       6.436 -67.575 -52.038  1.00  0.00     0.135 C 
BRANCH   7   8
HETATM    8  C10 UNK   900       5.385 -66.614 -51.552  1.00  0.00     0.259 C 
HETATM    9  O4  UNK   900       5.359 -65.411 -51.773  1.00  0.00    -0.265 OA
BRANCH   8  10
HETATM   10  O3  UNK   900       4.467 -67.314 -50.821  1.00  0.00    -0.326 OA
HETATM   11  C12 UNK   900       3.402 -66.538 -50.263  1.00  0.00     0.213 C 
ENDBRANCH   8  10
ENDBRANCH   7   8
ENDBRANCH   1   7
BRANCH   1  12
HETATM   12  C8  UNK   900       8.654 -66.527 -52.265  1.00  0.00     0.153 C 
HETATM   13  O2  UNK   900       9.457 -66.990 -53.061  1.00  0.00    -0.649 OA
BRANCH  12  14
HETATM   14  O1  UNK   900       8.429 -65.202 -52.092  1.00  0.00    -0.776 OA
HETATM   15  H15 UNK   900       8.766 -64.671 -52.845  1.00  0.00     0.167 HD
ENDBRANCH  12  14
ENDBRANCH   1  12
BRANCH   6  16
HETATM   16  C9  UNK   900       9.778 -70.352 -49.857  1.00  0.00     0.029 C 
HETATM   17  C11 UNK   900      10.926 -70.290 -48.870  1.00  0.00     0.010 C 
ENDBRANCH   6  16
TORSDOF 6
ENDMDL
MODEL 5
REMARK VINA RESULT:      -4.8     21.018     23.386
REMARK  6 active torsions:
REMARK  status: ('A' for Active; 'I' for Inactive)
REMARK    1  A    between atoms: O1_1  and  C8_12 
REMARK    2  A    between atoms: O3_3  and  C10_14 
REMARK    3  A    between atoms: C1_5  and  C7_11 
REMARK    4  A    between atoms: C1_5  and  C8_12 
REMARK    5  A    between atoms: C6_10  and  C9_13 
REMARK    6  A    between atoms: C7_11  and  C10_14 
ROOT
HETATM    1  C1  UNK   900      20.910 -31.973 -47.678  1.00  0.00     0.072 C 
HETATM    2  C2  UNK   900      21.180 -30.620 -48.368  1.00  0.00     0.025 C 
HETATM    3  C3  UNK   900      21.530 -30.780 -49.846  1.00  0.00     0.006 C 
HETATM    4  C4  UNK   900      22.730 -31.706 -50.040  1.00  0.00     0.034 C 
HETATM    5  C5  UNK   900      21.833 -33.069 -48.150  1.00  0.00    -0.003 C 
HETATM    6  C6  UNK   900      22.667 -32.955 -49.199  1.00  0.00    -0.083 C 
ENDROOT
BRANCH   1   7
HETATM    7  C7  UNK   900      21.007 -31.804 -46.158  1.00  0.00     0.135 C 
BRANCH   7   8
HETATM    8  C10 UNK   900      21.265 -33.117 -45.469  1.00  0.00     0.259 C 
HETATM    9  O4  UNK   900      20.474 -34.048 -45.387  1.00  0.00    -0.265 OA
BRANCH   8  10
HETATM   10  O3  UNK   900      22.529 -33.092 -44.952  1.00  0.00    -0.326 OA
HETATM   11  C12 UNK   900      22.614 -33.194 -43.527  1.00  0.00     0.213 C 
ENDBRANCH   8  10
ENDBRANCH   7   8
ENDBRANCH   1   7
BRANCH   1  12
HETATM   12  C8  UNK   900      19.522 -32.457 -48.011  1.00  0.00     0.153 C 
HETATM   13  O2  UNK   900      18.525 -31.751 -48.063  1.00  0.00    -0.649 OA
BRANCH  12  14
HETATM   14  O1  UNK   900      19.525 -33.792 -48.246  1.00  0.00    -0.776 OA
HETATM   15  H15 UNK   900      19.525 -34.311 -47.413  1.00  0.00     0.167 HD
ENDBRANCH  12  14
ENDBRANCH   1  12
BRANCH   6  16
HETATM   16  C9  UNK   900      23.596 -34.064 -49.597  1.00  0.00     0.029 C 
HETATM   17  C11 UNK   900      25.048 -33.647 -49.478  1.00  0.00     0.010 C 
ENDBRANCH   6  16
TORSDOF 6
ENDMDL
MODEL 6
REMARK VINA RESULT:      -4.6     30.820     32.698
REMARK  6 active torsions:
REMARK  status: ('A' for Active; 'I' for Inactive)
REMARK    1  A    between atoms: O1_1  and  C8_12 
REMARK    2  A    between atoms: O3_3  and  C10_14 
REMARK    3  A    between atoms: C1_5  and  C7_11 
REMARK    4  A    between atoms: C1_5  and  C8_12 
REMARK    5  A    between atoms: C6_10  and  C9_13 
REMARK    6  A    between atoms: C7_11  and  C10_14 
ROOT
HETATM    1  C1  UNK   900       8.541 -67.498 -50.150  1.00  0.00     0.072 C 
HETATM    2  C2  UNK   900       8.764 -66.946 -51.572  1.00  0.00     0.025 C 
HETATM    3  C3  UNK   900       7.818 -65.793 -51.905  1.00  0.00     0.006 C 
HETATM    4  C4  UNK   900       6.356 -66.201 -51.732  1.00  0.00     0.034 C 
HETATM    5  C5  UNK   900       7.085 -67.540 -49.756  1.00  0.00    -0.003 C 
HETATM    6  C6  UNK   900       6.093 -66.976 -50.467  1.00  0.00    -0.083 C 
ENDROOT
BRANCH   1   7
HETATM    7  C7  UNK   900       9.172 -68.889 -50.032  1.00  0.00     0.135 C 
BRANCH   7   8
HETATM    8  C10 UNK   900       8.385 -69.779 -49.108  1.00  0.00     0.259 C 
HETATM    9  O4  UNK   900       8.347 -69.687 -47.888  1.00  0.00    -0.265 OA
BRANCH   8  10
HETATM   10  O3  UNK   900       7.723 -70.706 -49.863  1.00  0.00    -0.326 OA
HETATM   11  C12 UNK   900       6.485 -71.173 -49.318  1.00  0.00     0.213 C 
ENDBRANCH   8  10
ENDBRANCH   7   8
ENDBRANCH   1   7
BRANCH   1  12
HETATM   12  C8  UNK   900       9.196 -66.596 -49.136  1.00  0.00     0.153 C 
HETATM   13  O2  UNK   900      10.174 -65.894 -49.348  1.00  0.00    -0.649 OA
BRANCH  12  14
HETATM   14  O1  UNK   900       8.553 -66.668 -47.944  1.00  0.00    -0.776 OA
HETATM   15  H15 UNK   900       9.024 -66.171 -47.243  1.00  0.00     0.167 HD
ENDBRANCH  12  14
ENDBRANCH   1  12
BRANCH   6  16
HETATM   16  C9  UNK   900       4.656 -67.088 -50.050  1.00  0.00     0.029 C 
HETATM   17  C11 UNK   900       3.715 -66.771 -51.195  1.00  0.00     0.010 C 
ENDBRANCH   6  16
TORSDOF 6
ENDMDL
MODEL 7
REMARK VINA RESULT:      -4.5     21.218     23.579
REMARK  6 active torsions:
REMARK  status: ('A' for Active; 'I' for Inactive)
REMARK    1  A    between atoms: O1_1  and  C8_12 
REMARK    2  A    between atoms: O3_3  and  C10_14 
REMARK    3  A    between atoms: C1_5  and  C7_11 
REMARK    4  A    between atoms: C1_5  and  C8_12 
REMARK    5  A    between atoms: C6_10  and  C9_13 
REMARK    6  A    between atoms: C7_11  and  C10_14 
ROOT
HETATM    1  C1  UNK   900      21.056 -33.190 -46.368  1.00  0.00     0.072 C 
HETATM    2  C2  UNK   900      20.140 -32.233 -47.159  1.00  0.00     0.025 C 
HETATM    3  C3  UNK   900      20.004 -32.637 -48.626  1.00  0.00     0.006 C 
HETATM    4  C4  UNK   900      21.367 -32.731 -49.310  1.00  0.00     0.034 C 
HETATM    5  C5  UNK   900      22.248 -33.658 -47.166  1.00  0.00    -0.003 C 
HETATM    6  C6  UNK   900      22.406 -33.443 -48.483  1.00  0.00    -0.083 C 
ENDROOT
BRANCH   1   7
HETATM    7  C7  UNK   900      21.508 -32.514 -45.069  1.00  0.00     0.135 C 
BRANCH   7   8
HETATM    8  C10 UNK   900      22.650 -31.563 -45.307  1.00  0.00     0.259 C 
HETATM    9  O4  UNK   900      22.608 -30.555 -46.000  1.00  0.00    -0.265 OA
BRANCH   8  10
HETATM   10  O3  UNK   900      23.739 -32.018 -44.620  1.00  0.00    -0.326 OA
HETATM   11  C12 UNK   900      24.910 -31.199 -44.709  1.00  0.00     0.213 C 
ENDBRANCH   8  10
ENDBRANCH   7   8
ENDBRANCH   1   7
BRANCH   1  12
HETATM   12  C8  UNK   900      20.305 -34.446 -46.009  1.00  0.00     0.153 C 
HETATM   13  O2  UNK   900      20.772 -35.576 -46.033  1.00  0.00    -0.649 OA
BRANCH  12  14
HETATM   14  O1  UNK   900      19.029 -34.156 -45.653  1.00  0.00    -0.776 OA
HETATM   15  H15 UNK   900      18.392 -34.816 -46.002  1.00  0.00     0.167 HD
ENDBRANCH  12  14
ENDBRANCH   1  12
BRANCH   6  16
HETATM   16  C9  UNK   900      23.635 -33.894 -49.217  1.00  0.00     0.029 C 
HETATM   17  C11 UNK   900      24.828 -33.013 -48.904  1.00  0.00     0.010 C 
ENDBRANCH   6  16
TORSDOF 6
ENDMDL
MODEL 8
REMARK VINA RESULT:      -4.4     17.887     19.391
REMARK  6 active torsions:
REMARK  status: ('A' for Active; 'I' for Inactive)
REMARK    1  A    between atoms: O1_1  and  C8_12 
REMARK    2  A    between atoms: O3_3  and  C10_14 
REMARK    3  A    between atoms: C1_5  and  C7_11 
REMARK    4  A    between atoms: C1_5  and  C8_12 
REMARK    5  A    between atoms: C6_10  and  C9_13 
REMARK    6  A    between atoms: C7_11  and  C10_14 
ROOT
HETATM    1  C1  UNK   900      40.734 -52.914 -44.892  1.00  0.00     0.072 C 
HETATM    2  C2  UNK   900      41.910 -52.833 -43.897  1.00  0.00     0.025 C 
HETATM    3  C3  UNK   900      42.706 -51.537 -44.039  1.00  0.00     0.006 C 
HETATM    4  C4  UNK   900      43.223 -51.352 -45.466  1.00  0.00     0.034 C 
HETATM    5  C5  UNK   900      41.071 -52.347 -46.249  1.00  0.00    -0.003 C 
HETATM    6  C6  UNK   900      42.193 -51.659 -46.522  1.00  0.00    -0.083 C 
ENDROOT
BRANCH   1   7
HETATM    7  C7  UNK   900      40.263 -54.367 -45.016  1.00  0.00     0.135 C 
BRANCH   7   8
HETATM    8  C10 UNK   900      41.220 -55.192 -45.835  1.00  0.00     0.259 C 
HETATM    9  O4  UNK   900      42.350 -55.520 -45.497  1.00  0.00    -0.265 OA
BRANCH   8  10
HETATM   10  O3  UNK   900      40.612 -55.510 -47.016  1.00  0.00    -0.326 OA
HETATM   11  C12 UNK   900      41.450 -55.452 -48.175  1.00  0.00     0.213 C 
ENDBRANCH   8  10
ENDBRANCH   7   8
ENDBRANCH   1   7
BRANCH   1  12
HETATM   12  C8  UNK   900      39.578 -52.085 -44.395  1.00  0.00     0.153 C 
HETATM   13  O2  UNK   900      38.901 -51.337 -45.086  1.00  0.00    -0.649 OA
BRANCH  12  14
HETATM   14  O1  UNK   900      39.386 -52.278 -43.067  1.00  0.00    -0.776 OA
HETATM   15  H15 UNK   900      39.628 -51.485 -42.543  1.00  0.00     0.167 HD
ENDBRANCH  12  14
ENDBRANCH   1  12
BRANCH   6  16
HETATM   16  C9  UNK   900      42.497 -51.156 -47.903  1.00  0.00     0.029 C 
HETATM   17  C11 UNK   900      43.549 -52.006 -48.589  1.00  0.00     0.010 C 
ENDBRANCH   6  16
TORSDOF 6
ENDMDL
MODEL 9
REMARK VINA RESULT:      -4.4     50.365     51.570
REMARK  6 active torsions:
REMARK  status: ('A' for Active; 'I' for Inactive)
REMARK    1  A    between atoms: O1_1  and  C8_12 
REMARK    2  A    between atoms: O3_3  and  C10_14 
REMARK    3  A    between atoms: C1_5  and  C7_11 
REMARK    4  A    between atoms: C1_5  and  C8_12 
REMARK    5  A    between atoms: C6_10  and  C9_13 
REMARK    6  A    between atoms: C7_11  and  C10_14 
ROOT
HETATM    1  C1  UNK   900      -4.017 -86.202 -62.986  1.00  0.00     0.072 C 
HETATM    2  C2  UNK   900      -4.563 -87.644 -63.030  1.00  0.00     0.025 C 
HETATM    3  C3  UNK   900      -4.085 -88.410 -64.262  1.00  0.00     0.006 C 
HETATM    4  C4  UNK   900      -4.453 -87.679 -65.553  1.00  0.00     0.034 C 
HETATM    5  C5  UNK   900      -3.970 -85.548 -64.345  1.00  0.00    -0.003 C 
HETATM    6  C6  UNK   900      -4.181 -86.198 -65.503  1.00  0.00    -0.083 C 
ENDROOT
BRANCH   1   7
HETATM    7  C7  UNK   900      -4.854 -85.364 -62.013  1.00  0.00     0.135 C 
BRANCH   7   8
HETATM    8  C10 UNK   900      -4.947 -83.928 -62.456  1.00  0.00     0.259 C 
HETATM    9  O4  UNK   900      -4.098 -83.067 -62.269  1.00  0.00    -0.265 OA
BRANCH   8  10
HETATM   10  O3  UNK   900      -6.139 -83.752 -63.100  1.00  0.00    -0.326 OA
HETATM   11  C12 UNK   900      -7.288 -84.266 -62.420  1.00  0.00     0.213 C 
ENDBRANCH   8  10
ENDBRANCH   7   8
ENDBRANCH   1   7
BRANCH   1  12
HETATM   12  C8  UNK   900      -2.591 -86.202 -62.500  1.00  0.00     0.153 C 
HETATM   13  O2  UNK   900      -1.793 -85.290 -62.662  1.00  0.00    -0.649 OA
BRANCH  12  14
HETATM   14  O1  UNK   900      -2.305 -87.361 -61.857  1.00  0.00    -0.776 OA
HETATM   15  H15 UNK   900      -1.361 -87.611 -61.954  1.00  0.00     0.167 HD
ENDBRANCH  12  14
ENDBRANCH   1  12
BRANCH   6  16
HETATM   16  C9  UNK   900      -4.166 -85.487 -66.824  1.00  0.00     0.029 C 
HETATM   17  C11 UNK   900      -2.891 -85.766 -67.596  1.00  0.00     0.010 C 
ENDBRANCH   6  16
TORSDOF 6
ENDMDL
