MODEL 1
REMARK VINA RESULT:      -8.1      0.000      0.000
REMARK  7 active torsions:
REMARK  status: ('A' for Active; 'I' for Inactive)
REMARK    1  A    between atoms: O2_2  and  C13_20 
REMARK    2  A    between atoms: O4_4  and  C10_17 
REMARK    3  A    between atoms: O5_5  and  C12_19 
REMARK    4  A    between atoms: O7_7  and  C18_25 
REMARK    5  A    between atoms: C1_8  and  C3_10 
REMARK    6  A    between atoms: C1_8  and  C7_14 
REMARK    7  A    between atoms: C5_12  and  C7_14 
ROOT
HETATM    1  O1  UNK   900      30.061 -47.456 -65.995  1.00  0.00    -0.279 OA
HETATM    2  O6  UNK   900      30.252 -46.849 -68.158  1.00  0.00    -0.259 OA
HETATM    3  C2  UNK   900      31.160 -45.022 -65.167  1.00  0.00    -0.012 A 
HETATM    4  C3  UNK   900      30.236 -47.171 -64.621  1.00  0.00     0.065 A 
HETATM    5  C4  UNK   900      30.996 -45.285 -66.530  1.00  0.00     0.083 A 
HETATM    6  C6  UNK   900      30.757 -46.018 -64.188  1.00  0.00     0.045 A 
HETATM    7  C9  UNK   900      31.711 -43.800 -64.762  1.00  0.00     0.049 A 
HETATM    8  C10 UNK   900      31.380 -44.335 -67.484  1.00  0.00     0.085 A 
HETATM    9  C11 UNK   900      30.414 -46.573 -66.978  1.00  0.00     0.302 A 
HETATM   10  C13 UNK   900      32.093 -42.853 -65.713  1.00  0.00     0.071 A 
HETATM   11  C14 UNK   900      31.927 -43.120 -67.071  1.00  0.00     0.074 A 
ENDROOT
BRANCH   4  12
HETATM   12  C1  UNK   900      29.787 -48.269 -63.713  1.00  0.00     0.149 C 
BRANCH  12  13
HETATM   13  C7  UNK   900      30.982 -48.983 -63.100  1.00  0.00     0.168 C 
HETATM   14  O3  UNK   900      31.644 -49.815 -63.717  1.00  0.00    -0.292 OA
BRANCH  13  15
HETATM   15  C5  UNK   900      31.357 -48.655 -61.693  1.00  0.00     0.049 A 
HETATM   16  C8  UNK   900      30.557 -49.083 -60.634  1.00  0.00    -0.043 A 
HETATM   17  C15 UNK   900      30.912 -48.773 -59.321  1.00  0.00     0.044 A 
HETATM   18  C17 UNK   900      29.314 -49.876 -60.875  1.00  0.00     0.049 C 
HETATM   19  C18 UNK   900      32.068 -48.033 -59.067  1.00  0.00     0.068 A 
HETATM   20  C16 UNK   900      32.868 -47.605 -60.127  1.00  0.00     0.074 A 
HETATM   21  C12 UNK   900      32.513 -47.916 -61.439  1.00  0.00     0.082 A 
BRANCH  19  22
HETATM   22  O7  UNK   900      32.416 -47.730 -57.787  1.00  0.00    -0.361 OA
HETATM   23  H13 UNK   900      31.806 -47.053 -57.446  1.00  0.00     0.217 HD
ENDBRANCH  19  22
BRANCH  21  24
HETATM   24  O5  UNK   900      33.309 -47.487 -62.460  1.00  0.00    -0.360 OA
HETATM   25  H12 UNK   900      32.969 -47.800 -63.313  1.00  0.00     0.217 HD
ENDBRANCH  21  24
ENDBRANCH  13  15
ENDBRANCH  12  13
ENDBRANCH   4  12
BRANCH   8  26
HETATM   26  O4  UNK   900      31.243 -44.537 -68.825  1.00  0.00    -0.360 OA
HETATM   27  H11 UNK   900      30.308 -44.539 -69.078  1.00  0.00     0.217 HD
ENDBRANCH   8  26
BRANCH  10  28
HETATM   28  O2  UNK   900      32.628 -41.667 -65.314  1.00  0.00    -0.356 OA
HETATM   29  C19 UNK   900      33.645 -41.103 -66.140  1.00  0.00     0.210 C 
ENDBRANCH  10  28
TORSDOF 7
ENDMDL
MODEL 2
REMARK VINA RESULT:      -7.6      2.626      7.786
REMARK  7 active torsions:
REMARK  status: ('A' for Active; 'I' for Inactive)
REMARK    1  A    between atoms: O2_2  and  C13_20 
REMARK    2  A    between atoms: O4_4  and  C10_17 
REMARK    3  A    between atoms: O5_5  and  C12_19 
REMARK    4  A    between atoms: O7_7  and  C18_25 
REMARK    5  A    between atoms: C1_8  and  C3_10 
REMARK    6  A    between atoms: C1_8  and  C7_14 
REMARK    7  A    between atoms: C5_12  and  C7_14 
ROOT
HETATM    1  O1  UNK   900      32.244 -48.411 -62.998  1.00  0.00    -0.279 OA
HETATM    2  O6  UNK   900      34.482 -48.540 -62.758  1.00  0.00    -0.259 OA
HETATM    3  C2  UNK   900      31.874 -50.376 -61.044  1.00  0.00    -0.012 A 
HETATM    4  C3  UNK   900      30.944 -48.837 -62.638  1.00  0.00     0.065 A 
HETATM    5  C4  UNK   900      33.166 -49.969 -61.388  1.00  0.00     0.083 A 
HETATM    6  C6  UNK   900      30.729 -49.773 -61.707  1.00  0.00     0.045 A 
HETATM    7  C9  UNK   900      31.698 -51.360 -60.064  1.00  0.00     0.049 A 
HETATM    8  C10 UNK   900      34.277 -50.541 -60.757  1.00  0.00     0.085 A 
HETATM    9  C11 UNK   900      33.371 -48.928 -62.422  1.00  0.00     0.302 A 
HETATM   10  C13 UNK   900      32.806 -51.930 -59.436  1.00  0.00     0.071 A 
HETATM   11  C14 UNK   900      34.093 -51.521 -59.781  1.00  0.00     0.074 A 
ENDROOT
BRANCH   4  12
HETATM   12  C1  UNK   900      29.851 -48.148 -63.386  1.00  0.00     0.149 C 
BRANCH  12  13
HETATM   13  C7  UNK   900      29.912 -46.644 -63.166  1.00  0.00     0.168 C 
HETATM   14  O3  UNK   900      29.550 -46.113 -62.118  1.00  0.00    -0.292 OA
BRANCH  13  15
HETATM   15  C5  UNK   900      30.433 -45.787 -64.272  1.00  0.00     0.049 A 
HETATM   16  C8  UNK   900      29.681 -45.600 -65.430  1.00  0.00    -0.043 A 
HETATM   17  C15 UNK   900      30.174 -44.799 -66.461  1.00  0.00     0.044 A 
HETATM   18  C17 UNK   900      28.343 -46.243 -65.596  1.00  0.00     0.049 C 
HETATM   19  C18 UNK   900      31.421 -44.186 -66.332  1.00  0.00     0.068 A 
HETATM   20  C16 UNK   900      32.174 -44.374 -65.173  1.00  0.00     0.074 A 
HETATM   21  C12 UNK   900      31.680 -45.174 -64.142  1.00  0.00     0.082 A 
BRANCH  19  22
HETATM   22  O7  UNK   900      31.902 -43.403 -67.336  1.00  0.00    -0.361 OA
HETATM   23  H13 UNK   900      32.842 -43.613 -67.476  1.00  0.00     0.217 HD
ENDBRANCH  19  22
BRANCH  21  24
HETATM   24  O5  UNK   900      32.433 -45.345 -63.019  1.00  0.00    -0.360 OA
HETATM   25  H12 UNK   900      32.250 -46.207 -62.613  1.00  0.00     0.217 HD
ENDBRANCH  21  24
ENDBRANCH  13  15
ENDBRANCH  12  13
ENDBRANCH   4  12
BRANCH   8  26
HETATM   26  O4  UNK   900      35.559 -50.184 -61.052  1.00  0.00    -0.360 OA
HETATM   27  H11 UNK   900      35.598 -49.262 -61.347  1.00  0.00     0.217 HD
ENDBRANCH   8  26
BRANCH  10  28
HETATM   28  O2  UNK   900      32.630 -52.887 -58.483  1.00  0.00    -0.356 OA
HETATM   29  C19 UNK   900      32.417 -54.222 -58.936  1.00  0.00     0.210 C 
ENDBRANCH  10  28
TORSDOF 7
ENDMDL
MODEL 3
REMARK VINA RESULT:      -7.4      2.470      2.776
REMARK  7 active torsions:
REMARK  status: ('A' for Active; 'I' for Inactive)
REMARK    1  A    between atoms: O2_2  and  C13_20 
REMARK    2  A    between atoms: O4_4  and  C10_17 
REMARK    3  A    between atoms: O5_5  and  C12_19 
REMARK    4  A    between atoms: O7_7  and  C18_25 
REMARK    5  A    between atoms: C1_8  and  C3_10 
REMARK    6  A    between atoms: C1_8  and  C7_14 
REMARK    7  A    between atoms: C5_12  and  C7_14 
ROOT
HETATM    1  O1  UNK   900      30.263 -48.070 -64.251  1.00  0.00    -0.279 OA
HETATM    2  O6  UNK   900      28.389 -47.044 -64.974  1.00  0.00    -0.259 OA
HETATM    3  C2  UNK   900      31.841 -45.978 -65.225  1.00  0.00    -0.012 A 
HETATM    4  C3  UNK   900      31.669 -48.098 -64.108  1.00  0.00     0.065 A 
HETATM    5  C4  UNK   900      30.452 -45.933 -65.378  1.00  0.00     0.083 A 
HETATM    6  C6  UNK   900      32.456 -47.115 -64.560  1.00  0.00     0.045 A 
HETATM    7  C9  UNK   900      32.623 -44.926 -65.716  1.00  0.00     0.049 A 
HETATM    8  C10 UNK   900      29.847 -44.844 -66.016  1.00  0.00     0.085 A 
HETATM    9  C11 UNK   900      29.608 -47.038 -64.864  1.00  0.00     0.302 A 
HETATM   10  C13 UNK   900      32.019 -43.841 -66.353  1.00  0.00     0.071 A 
HETATM   11  C14 UNK   900      30.634 -43.800 -66.502  1.00  0.00     0.074 A 
ENDROOT
BRANCH   4  12
HETATM   12  C1  UNK   900      32.184 -49.314 -63.411  1.00  0.00     0.149 C 
BRANCH  12  13
HETATM   13  C7  UNK   900      32.548 -48.995 -61.969  1.00  0.00     0.168 C 
HETATM   14  O3  UNK   900      32.565 -47.847 -61.529  1.00  0.00    -0.292 OA
BRANCH  13  15
HETATM   15  C5  UNK   900      32.898 -50.126 -61.060  1.00  0.00     0.049 A 
HETATM   16  C8  UNK   900      31.898 -50.808 -60.369  1.00  0.00    -0.043 A 
HETATM   17  C15 UNK   900      32.231 -51.863 -59.519  1.00  0.00     0.044 A 
HETATM   18  C17 UNK   900      30.460 -50.430 -60.518  1.00  0.00     0.049 C 
HETATM   19  C18 UNK   900      33.566 -52.236 -59.362  1.00  0.00     0.068 A 
HETATM   20  C16 UNK   900      34.567 -51.554 -60.054  1.00  0.00     0.074 A 
HETATM   21  C12 UNK   900      34.233 -50.499 -60.903  1.00  0.00     0.082 A 
BRANCH  19  22
HETATM   22  O7  UNK   900      33.893 -53.266 -58.535  1.00  0.00    -0.361 OA
HETATM   23  H13 UNK   900      34.555 -52.957 -57.892  1.00  0.00     0.217 HD
ENDBRANCH  19  22
BRANCH  21  24
HETATM   24  O5  UNK   900      35.227 -49.846 -61.569  1.00  0.00    -0.360 OA
HETATM   25  H12 UNK   900      36.049 -50.362 -61.547  1.00  0.00     0.217 HD
ENDBRANCH  21  24
ENDBRANCH  13  15
ENDBRANCH  12  13
ENDBRANCH   4  12
BRANCH   8  26
HETATM   26  O4  UNK   900      28.498 -44.747 -66.192  1.00  0.00    -0.360 OA
HETATM   27  H11 UNK   900      28.098 -45.627 -66.262  1.00  0.00     0.217 HD
ENDBRANCH   8  26
BRANCH  10  28
HETATM   28  O2  UNK   900      32.784 -42.820 -66.828  1.00  0.00    -0.356 OA
HETATM   29  C19 UNK   900      32.244 -41.503 -66.731  1.00  0.00     0.210 C 
ENDBRANCH  10  28
TORSDOF 7
ENDMDL
MODEL 4
REMARK VINA RESULT:      -7.3      1.859      2.419
REMARK  7 active torsions:
REMARK  status: ('A' for Active; 'I' for Inactive)
REMARK    1  A    between atoms: O2_2  and  C13_20 
REMARK    2  A    between atoms: O4_4  and  C10_17 
REMARK    3  A    between atoms: O5_5  and  C12_19 
REMARK    4  A    between atoms: O7_7  and  C18_25 
REMARK    5  A    between atoms: C1_8  and  C3_10 
REMARK    6  A    between atoms: C1_8  and  C7_14 
REMARK    7  A    between atoms: C5_12  and  C7_14 
ROOT
HETATM    1  O1  UNK   900      30.712 -46.017 -65.069  1.00  0.00    -0.279 OA
HETATM    2  O6  UNK   900      29.639 -44.261 -65.991  1.00  0.00    -0.259 OA
HETATM    3  C2  UNK   900      33.009 -44.471 -64.683  1.00  0.00    -0.012 A 
HETATM    4  C3  UNK   900      31.868 -46.575 -64.477  1.00  0.00     0.065 A 
HETATM    5  C4  UNK   900      31.877 -43.901 -65.272  1.00  0.00     0.083 A 
HETATM    6  C6  UNK   900      32.984 -45.866 -64.275  1.00  0.00     0.045 A 
HETATM    7  C9  UNK   900      34.155 -43.689 -64.494  1.00  0.00     0.049 A 
HETATM    8  C10 UNK   900      31.887 -42.559 -65.669  1.00  0.00     0.085 A 
HETATM    9  C11 UNK   900      30.654 -44.713 -65.480  1.00  0.00     0.302 A 
HETATM   10  C13 UNK   900      34.165 -42.351 -64.890  1.00  0.00     0.071 A 
HETATM   11  C14 UNK   900      33.033 -41.787 -65.476  1.00  0.00     0.074 A 
ENDROOT
BRANCH   4  12
HETATM   12  C1  UNK   900      31.723 -48.013 -64.101  1.00  0.00     0.149 C 
BRANCH  12  13
HETATM   13  C7  UNK   900      30.773 -48.169 -62.924  1.00  0.00     0.168 C 
HETATM   14  O3  UNK   900      29.560 -48.309 -63.065  1.00  0.00    -0.292 OA
BRANCH  13  15
HETATM   15  C5  UNK   900      31.346 -48.149 -61.546  1.00  0.00     0.049 A 
HETATM   16  C8  UNK   900      31.299 -46.984 -60.781  1.00  0.00    -0.043 A 
HETATM   17  C15 UNK   900      31.837 -46.971 -59.494  1.00  0.00     0.044 A 
HETATM   18  C17 UNK   900      30.678 -45.734 -61.314  1.00  0.00     0.049 C 
HETATM   19  C18 UNK   900      32.422 -48.125 -58.972  1.00  0.00     0.068 A 
HETATM   20  C16 UNK   900      32.469 -49.291 -59.736  1.00  0.00     0.074 A 
HETATM   21  C12 UNK   900      31.931 -49.303 -61.023  1.00  0.00     0.082 A 
BRANCH  19  22
HETATM   22  O7  UNK   900      32.947 -48.115 -57.716  1.00  0.00    -0.361 OA
HETATM   23  H13 UNK   900      33.479 -48.919 -57.590  1.00  0.00     0.217 HD
ENDBRANCH  19  22
BRANCH  21  24
HETATM   24  O5  UNK   900      31.988 -50.453 -61.753  1.00  0.00    -0.360 OA
HETATM   25  H12 UNK   900      32.424 -51.157 -61.247  1.00  0.00     0.217 HD
ENDBRANCH  21  24
ENDBRANCH  13  15
ENDBRANCH  12  13
ENDBRANCH   4  12
BRANCH   8  26
HETATM   26  O4  UNK   900      30.812 -41.952 -66.248  1.00  0.00    -0.360 OA
HETATM   27  H11 UNK   900      30.698 -42.254 -67.161  1.00  0.00     0.217 HD
ENDBRANCH   8  26
BRANCH  10  28
HETATM   28  O2  UNK   900      35.282 -41.595 -64.704  1.00  0.00    -0.356 OA
HETATM   29  C19 UNK   900      36.411 -42.240 -64.119  1.00  0.00     0.210 C 
ENDBRANCH  10  28
TORSDOF 7
ENDMDL
MODEL 5
REMARK VINA RESULT:      -6.8     22.647     23.541
REMARK  7 active torsions:
REMARK  status: ('A' for Active; 'I' for Inactive)
REMARK    1  A    between atoms: O2_2  and  C13_20 
REMARK    2  A    between atoms: O4_4  and  C10_17 
REMARK    3  A    between atoms: O5_5  and  C12_19 
REMARK    4  A    between atoms: O7_7  and  C18_25 
REMARK    5  A    between atoms: C1_8  and  C3_10 
REMARK    6  A    between atoms: C1_8  and  C7_14 
REMARK    7  A    between atoms: C5_12  and  C7_14 
ROOT
HETATM    1  O1  UNK   900      23.524 -30.057 -49.933  1.00  0.00    -0.279 OA
HETATM    2  O6  UNK   900      25.624 -30.078 -50.754  1.00  0.00    -0.259 OA
HETATM    3  C2  UNK   900      22.992 -27.636 -51.226  1.00  0.00    -0.012 A 
HETATM    4  C3  UNK   900      22.259 -29.436 -49.814  1.00  0.00     0.065 A 
HETATM    5  C4  UNK   900      24.249 -28.233 -51.355  1.00  0.00     0.083 A 
HETATM    6  C6  UNK   900      21.968 -28.279 -50.419  1.00  0.00     0.045 A 
HETATM    7  C9  UNK   900      22.735 -26.424 -51.878  1.00  0.00     0.049 A 
HETATM    8  C10 UNK   900      25.244 -27.625 -52.129  1.00  0.00     0.085 A 
HETATM    9  C11 UNK   900      24.539 -29.517 -50.673  1.00  0.00     0.302 A 
HETATM   10  C13 UNK   900      23.728 -25.817 -52.649  1.00  0.00     0.071 A 
HETATM   11  C14 UNK   900      24.980 -26.417 -52.775  1.00  0.00     0.074 A 
ENDROOT
BRANCH   4  12
HETATM   12  C1  UNK   900      21.292 -30.189 -48.961  1.00  0.00     0.149 C 
BRANCH  12  13
HETATM   13  C7  UNK   900      21.469 -31.688 -49.141  1.00  0.00     0.168 C 
HETATM   14  O3  UNK   900      21.791 -32.193 -50.214  1.00  0.00    -0.292 OA
BRANCH  13  15
HETATM   15  C5  UNK   900      21.239 -32.574 -47.962  1.00  0.00     0.049 A 
HETATM   16  C8  UNK   900      22.260 -32.796 -47.039  1.00  0.00    -0.043 A 
HETATM   17  C15 UNK   900      22.040 -33.626 -45.939  1.00  0.00     0.044 A 
HETATM   18  C17 UNK   900      23.601 -32.156 -47.201  1.00  0.00     0.049 C 
HETATM   19  C18 UNK   900      20.798 -34.236 -45.764  1.00  0.00     0.068 A 
HETATM   20  C16 UNK   900      19.776 -34.015 -46.687  1.00  0.00     0.074 A 
HETATM   21  C12 UNK   900      19.996 -33.183 -47.786  1.00  0.00     0.082 A 
BRANCH  19  22
HETATM   22  O7  UNK   900      20.581 -35.045 -44.691  1.00  0.00    -0.361 OA
HETATM   23  H13 UNK   900      21.436 -35.255 -44.277  1.00  0.00     0.217 HD
ENDBRANCH  19  22
BRANCH  21  24
HETATM   24  O5  UNK   900      18.984 -32.982 -48.676  1.00  0.00    -0.360 OA
HETATM   25  H12 UNK   900      18.405 -33.759 -48.716  1.00  0.00     0.217 HD
ENDBRANCH  21  24
ENDBRANCH  13  15
ENDBRANCH  12  13
ENDBRANCH   4  12
BRANCH   8  26
HETATM   26  O4  UNK   900      26.487 -28.162 -52.289  1.00  0.00    -0.360 OA
HETATM   27  H11 UNK   900      26.488 -28.815 -53.004  1.00  0.00     0.217 HD
ENDBRANCH   8  26
BRANCH  10  28
HETATM   28  O2  UNK   900      23.472 -24.638 -53.280  1.00  0.00    -0.356 OA
HETATM   29  C19 UNK   900      24.067 -24.447 -54.563  1.00  0.00     0.210 C 
ENDBRANCH  10  28
TORSDOF 7
ENDMDL
MODEL 6
REMARK VINA RESULT:      -6.8      3.168      4.660
REMARK  7 active torsions:
REMARK  status: ('A' for Active; 'I' for Inactive)
REMARK    1  A    between atoms: O2_2  and  C13_20 
REMARK    2  A    between atoms: O4_4  and  C10_17 
REMARK    3  A    between atoms: O5_5  and  C12_19 
REMARK    4  A    between atoms: O7_7  and  C18_25 
REMARK    5  A    between atoms: C1_8  and  C3_10 
REMARK    6  A    between atoms: C1_8  and  C7_14 
REMARK    7  A    between atoms: C5_12  and  C7_14 
ROOT
HETATM    1  O1  UNK   900      32.200 -48.853 -62.756  1.00  0.00    -0.279 OA
HETATM    2  O6  UNK   900      29.952 -48.675 -62.744  1.00  0.00    -0.259 OA
HETATM    3  C2  UNK   900      32.355 -47.323 -65.091  1.00  0.00    -0.012 A 
HETATM    4  C3  UNK   900      33.450 -48.565 -63.351  1.00  0.00     0.065 A 
HETATM    5  C4  UNK   900      31.110 -47.598 -64.519  1.00  0.00     0.083 A 
HETATM    6  C6  UNK   900      33.563 -47.836 -64.466  1.00  0.00     0.045 A 
HETATM    7  C9  UNK   900      32.423 -46.556 -66.260  1.00  0.00     0.049 A 
HETATM    8  C10 UNK   900      29.938 -47.109 -65.110  1.00  0.00     0.085 A 
HETATM    9  C11 UNK   900      31.018 -48.408 -63.281  1.00  0.00     0.302 A 
HETATM   10  C13 UNK   900      31.255 -46.070 -66.849  1.00  0.00     0.071 A 
HETATM   11  C14 UNK   900      30.015 -46.346 -66.275  1.00  0.00     0.074 A 
ENDROOT
BRANCH   4  12
HETATM   12  C1  UNK   900      34.617 -49.146 -62.621  1.00  0.00     0.149 C 
BRANCH  12  13
HETATM   13  C7  UNK   900      34.347 -49.191 -61.125  1.00  0.00     0.168 C 
HETATM   14  O3  UNK   900      34.195 -48.176 -60.448  1.00  0.00    -0.292 OA
BRANCH  13  15
HETATM   15  C5  UNK   900      34.267 -50.526 -60.460  1.00  0.00     0.049 A 
HETATM   16  C8  UNK   900      35.406 -51.320 -60.338  1.00  0.00    -0.043 A 
HETATM   17  C15 UNK   900      35.324 -52.567 -59.717  1.00  0.00     0.044 A 
HETATM   18  C17 UNK   900      36.728 -50.862 -60.862  1.00  0.00     0.049 C 
HETATM   19  C18 UNK   900      34.102 -53.019 -59.219  1.00  0.00     0.068 A 
HETATM   20  C16 UNK   900      32.962 -52.224 -59.341  1.00  0.00     0.074 A 
HETATM   21  C12 UNK   900      33.044 -50.977 -59.962  1.00  0.00     0.082 A 
BRANCH  19  22
HETATM   22  O7  UNK   900      34.020 -54.234 -58.612  1.00  0.00    -0.361 OA
HETATM   23  H13 UNK   900      34.753 -54.319 -57.977  1.00  0.00     0.217 HD
ENDBRANCH  19  22
BRANCH  21  24
HETATM   24  O5  UNK   900      31.918 -50.217 -60.072  1.00  0.00    -0.360 OA
HETATM   25  H12 UNK   900      32.072 -49.462 -60.661  1.00  0.00     0.217 HD
ENDBRANCH  21  24
ENDBRANCH  13  15
ENDBRANCH  12  13
ENDBRANCH   4  12
BRANCH   8  26
HETATM   26  O4  UNK   900      28.698 -47.346 -64.596  1.00  0.00    -0.360 OA
HETATM   27  H11 UNK   900      28.736 -47.427 -63.632  1.00  0.00     0.217 HD
ENDBRANCH   8  26
BRANCH  10  28
HETATM   28  O2  UNK   900      31.326 -45.324 -67.986  1.00  0.00    -0.356 OA
HETATM   29  C19 UNK   900      32.136 -45.830 -69.045  1.00  0.00     0.210 C 
ENDBRANCH  10  28
TORSDOF 7
ENDMDL
MODEL 7
REMARK VINA RESULT:      -6.7      2.242      3.873
REMARK  7 active torsions:
REMARK  status: ('A' for Active; 'I' for Inactive)
REMARK    1  A    between atoms: O2_2  and  C13_20 
REMARK    2  A    between atoms: O4_4  and  C10_17 
REMARK    3  A    between atoms: O5_5  and  C12_19 
REMARK    4  A    between atoms: O7_7  and  C18_25 
REMARK    5  A    between atoms: C1_8  and  C3_10 
REMARK    6  A    between atoms: C1_8  and  C7_14 
REMARK    7  A    between atoms: C5_12  and  C7_14 
ROOT
HETATM    1  O1  UNK   900      31.225 -46.195 -62.104  1.00  0.00    -0.279 OA
HETATM    2  O6  UNK   900      29.100 -46.023 -62.837  1.00  0.00    -0.259 OA
HETATM    3  C2  UNK   900      32.203 -45.685 -64.673  1.00  0.00    -0.012 A 
HETATM    4  C3  UNK   900      32.616 -46.161 -62.354  1.00  0.00     0.065 A 
HETATM    5  C4  UNK   900      30.824 -45.716 -64.445  1.00  0.00     0.083 A 
HETATM    6  C6  UNK   900      33.120 -45.919 -63.569  1.00  0.00     0.045 A 
HETATM    7  C9  UNK   900      32.684 -45.429 -65.962  1.00  0.00     0.049 A 
HETATM    8  C10 UNK   900      29.930 -45.492 -65.499  1.00  0.00     0.085 A 
HETATM    9  C11 UNK   900      30.297 -45.985 -63.086  1.00  0.00     0.302 A 
HETATM   10  C13 UNK   900      31.791 -45.206 -67.012  1.00  0.00     0.071 A 
HETATM   11  C14 UNK   900      30.417 -45.237 -66.780  1.00  0.00     0.074 A 
ENDROOT
BRANCH   4  12
HETATM   12  C1  UNK   900      33.456 -46.417 -61.146  1.00  0.00     0.149 C 
BRANCH  12  13
HETATM   13  C7  UNK   900      32.612 -46.973 -60.011  1.00  0.00     0.168 C 
HETATM   14  O3  UNK   900      32.106 -46.256 -59.149  1.00  0.00    -0.292 OA
BRANCH  13  15
HETATM   15  C5  UNK   900      32.393 -48.448 -59.948  1.00  0.00     0.049 A 
HETATM   16  C8  UNK   900      33.480 -49.316 -59.851  1.00  0.00    -0.043 A 
HETATM   17  C15 UNK   900      33.269 -50.695 -59.794  1.00  0.00     0.044 A 
HETATM   18  C17 UNK   900      34.881 -48.800 -59.806  1.00  0.00     0.049 C 
HETATM   19  C18 UNK   900      31.971 -51.204 -59.834  1.00  0.00     0.068 A 
HETATM   20  C16 UNK   900      30.884 -50.335 -59.931  1.00  0.00     0.074 A 
HETATM   21  C12 UNK   900      31.095 -48.957 -59.987  1.00  0.00     0.082 A 
BRANCH  19  22
HETATM   22  O7  UNK   900      31.764 -52.548 -59.777  1.00  0.00    -0.361 OA
HETATM   23  H13 UNK   900      31.061 -52.731 -59.130  1.00  0.00     0.217 HD
ENDBRANCH  19  22
BRANCH  21  24
HETATM   24  O5  UNK   900      30.018 -48.126 -60.083  1.00  0.00    -0.360 OA
HETATM   25  H12 UNK   900      30.303 -47.220 -60.281  1.00  0.00     0.217 HD
ENDBRANCH  21  24
ENDBRANCH  13  15
ENDBRANCH  12  13
ENDBRANCH   4  12
BRANCH   8  26
HETATM   26  O4  UNK   900      28.577 -45.510 -65.335  1.00  0.00    -0.360 OA
HETATM   27  H11 UNK   900      28.335 -45.213 -64.445  1.00  0.00     0.217 HD
ENDBRANCH   8  26
BRANCH  10  28
HETATM   28  O2  UNK   900      32.264 -44.957 -68.265  1.00  0.00    -0.356 OA
HETATM   29  C19 UNK   900      32.661 -46.083 -69.044  1.00  0.00     0.210 C 
ENDBRANCH  10  28
TORSDOF 7
ENDMDL
MODEL 8
REMARK VINA RESULT:      -6.7      2.608      3.557
REMARK  7 active torsions:
REMARK  status: ('A' for Active; 'I' for Inactive)
REMARK    1  A    between atoms: O2_2  and  C13_20 
REMARK    2  A    between atoms: O4_4  and  C10_17 
REMARK    3  A    between atoms: O5_5  and  C12_19 
REMARK    4  A    between atoms: O7_7  and  C18_25 
REMARK    5  A    between atoms: C1_8  and  C3_10 
REMARK    6  A    between atoms: C1_8  and  C7_14 
REMARK    7  A    between atoms: C5_12  and  C7_14 
ROOT
HETATM    1  O1  UNK   900      32.197 -47.005 -62.862  1.00  0.00    -0.279 OA
HETATM    2  O6  UNK   900      30.447 -46.592 -64.222  1.00  0.00    -0.259 OA
HETATM    3  C2  UNK   900      33.360 -44.553 -63.536  1.00  0.00    -0.012 A 
HETATM    4  C3  UNK   900      33.434 -46.612 -62.300  1.00  0.00     0.065 A 
HETATM    5  C4  UNK   900      32.138 -44.925 -64.103  1.00  0.00     0.083 A 
HETATM    6  C6  UNK   900      34.019 -45.447 -62.597  1.00  0.00     0.045 A 
HETATM    7  C9  UNK   900      33.934 -43.324 -63.878  1.00  0.00     0.049 A 
HETATM    8  C10 UNK   900      31.492 -44.073 -65.008  1.00  0.00     0.085 A 
HETATM    9  C11 UNK   900      31.514 -46.222 -63.752  1.00  0.00     0.302 A 
HETATM   10  C13 UNK   900      33.291 -42.476 -64.781  1.00  0.00     0.071 A 
HETATM   11  C14 UNK   900      32.072 -42.850 -65.344  1.00  0.00     0.074 A 
ENDROOT
BRANCH   4  12
HETATM   12  C1  UNK   900      34.013 -47.611 -61.352  1.00  0.00     0.149 C 
BRANCH  12  13
HETATM   13  C7  UNK   900      33.935 -49.013 -61.934  1.00  0.00     0.168 C 
HETATM   14  O3  UNK   900      34.222 -49.263 -63.103  1.00  0.00    -0.292 OA
BRANCH  13  15
HETATM   15  C5  UNK   900      33.490 -50.125 -61.043  1.00  0.00     0.049 A 
HETATM   16  C8  UNK   900      34.429 -50.932 -60.402  1.00  0.00    -0.043 A 
HETATM   17  C15 UNK   900      34.008 -51.970 -59.571  1.00  0.00     0.044 A 
HETATM   18  C17 UNK   900      35.895 -50.706 -60.585  1.00  0.00     0.049 C 
HETATM   19  C18 UNK   900      32.645 -52.203 -59.383  1.00  0.00     0.068 A 
HETATM   20  C16 UNK   900      31.705 -51.396 -60.025  1.00  0.00     0.074 A 
HETATM   21  C12 UNK   900      32.127 -50.357 -60.855  1.00  0.00     0.082 A 
BRANCH  19  22
HETATM   22  O7  UNK   900      32.232 -53.215 -58.573  1.00  0.00    -0.361 OA
HETATM   23  H13 UNK   900      31.324 -53.029 -58.274  1.00  0.00     0.217 HD
ENDBRANCH  19  22
BRANCH  21  24
HETATM   24  O5  UNK   900      31.192 -49.582 -61.473  1.00  0.00    -0.360 OA
HETATM   25  H12 UNK   900      31.027 -49.899 -62.375  1.00  0.00     0.217 HD
ENDBRANCH  21  24
ENDBRANCH  13  15
ENDBRANCH  12  13
ENDBRANCH   4  12
BRANCH   8  26
HETATM   26  O4  UNK   900      30.300 -44.384 -65.592  1.00  0.00    -0.360 OA
HETATM   27  H11 UNK   900      29.700 -44.792 -64.950  1.00  0.00     0.217 HD
ENDBRANCH   8  26
BRANCH  10  28
HETATM   28  O2  UNK   900      33.854 -41.281 -65.111  1.00  0.00    -0.356 OA
HETATM   29  C19 UNK   900      34.144 -41.059 -66.490  1.00  0.00     0.210 C 
ENDBRANCH  10  28
TORSDOF 7
ENDMDL
MODEL 9
REMARK VINA RESULT:      -6.6      2.817      3.660
REMARK  7 active torsions:
REMARK  status: ('A' for Active; 'I' for Inactive)
REMARK    1  A    between atoms: O2_2  and  C13_20 
REMARK    2  A    between atoms: O4_4  and  C10_17 
REMARK    3  A    between atoms: O5_5  and  C12_19 
REMARK    4  A    between atoms: O7_7  and  C18_25 
REMARK    5  A    between atoms: C1_8  and  C3_10 
REMARK    6  A    between atoms: C1_8  and  C7_14 
REMARK    7  A    between atoms: C5_12  and  C7_14 
ROOT
HETATM    1  O1  UNK   900      30.649 -45.257 -64.568  1.00  0.00    -0.279 OA
HETATM    2  O6  UNK   900      31.302 -43.259 -65.384  1.00  0.00    -0.259 OA
HETATM    3  C2  UNK   900      32.937 -46.482 -65.609  1.00  0.00    -0.012 A 
HETATM    4  C3  UNK   900      30.871 -46.642 -64.391  1.00  0.00     0.065 A 
HETATM    5  C4  UNK   900      32.734 -45.112 -65.795  1.00  0.00     0.083 A 
HETATM    6  C6  UNK   900      31.954 -47.262 -64.873  1.00  0.00     0.045 A 
HETATM    7  C9  UNK   900      34.085 -47.087 -66.133  1.00  0.00     0.049 A 
HETATM    8  C10 UNK   900      33.672 -44.349 -66.501  1.00  0.00     0.085 A 
HETATM    9  C11 UNK   900      31.524 -44.455 -65.247  1.00  0.00     0.302 A 
HETATM   10  C13 UNK   900      35.020 -46.326 -66.837  1.00  0.00     0.071 A 
HETATM   11  C14 UNK   900      34.813 -44.960 -67.020  1.00  0.00     0.074 A 
ENDROOT
BRANCH   4  12
HETATM   12  C1  UNK   900      29.795 -47.336 -63.623  1.00  0.00     0.149 C 
BRANCH  12  13
HETATM   13  C7  UNK   900      29.998 -47.152 -62.127  1.00  0.00     0.168 C 
HETATM   14  O3  UNK   900      29.599 -46.159 -61.521  1.00  0.00    -0.292 OA
BRANCH  13  15
HETATM   15  C5  UNK   900      30.711 -48.224 -61.372  1.00  0.00     0.049 A 
HETATM   16  C8  UNK   900      32.024 -48.029 -60.944  1.00  0.00    -0.043 A 
HETATM   17  C15 UNK   900      32.686 -49.035 -60.239  1.00  0.00     0.044 A 
HETATM   18  C17 UNK   900      32.746 -46.751 -61.224  1.00  0.00     0.049 C 
HETATM   19  C18 UNK   900      32.034 -50.238 -59.964  1.00  0.00     0.068 A 
HETATM   20  C16 UNK   900      30.721 -50.434 -60.393  1.00  0.00     0.074 A 
HETATM   21  C12 UNK   900      30.059 -49.426 -61.096  1.00  0.00     0.082 A 
BRANCH  19  22
HETATM   22  O7  UNK   900      32.678 -51.220 -59.277  1.00  0.00    -0.361 OA
HETATM   23  H13 UNK   900      32.964 -51.908 -59.903  1.00  0.00     0.217 HD
ENDBRANCH  19  22
BRANCH  21  24
HETATM   24  O5  UNK   900      28.777 -49.639 -61.506  1.00  0.00    -0.360 OA
HETATM   25  H12 UNK   900      28.623 -49.231 -62.373  1.00  0.00     0.217 HD
ENDBRANCH  21  24
ENDBRANCH  13  15
ENDBRANCH  12  13
ENDBRANCH   4  12
BRANCH   8  26
HETATM   26  O4  UNK   900      33.525 -43.011 -66.713  1.00  0.00    -0.360 OA
HETATM   27  H11 UNK   900      34.067 -42.504 -66.090  1.00  0.00     0.217 HD
ENDBRANCH   8  26
BRANCH  10  28
HETATM   28  O2  UNK   900      36.135 -46.919 -67.345  1.00  0.00    -0.356 OA
HETATM   29  C19 UNK   900      36.633 -48.063 -66.654  1.00  0.00     0.210 C 
ENDBRANCH  10  28
TORSDOF 7
ENDMDL
