MODEL 1
REMARK VINA RESULT:      -8.4      0.000      0.000
REMARK  1 active torsions:
REMARK  status: ('A' for Active; 'I' for Inactive)
REMARK    1  A    between atoms: O2_2  and  C10_13 
ROOT
HETATM    1  O1  UNK   900      23.518 -36.769 -67.702  1.00  0.00    -0.314 OA
HETATM    2  O3  UNK   900      24.192 -34.728 -66.892  1.00  0.00    -0.265 OA
HETATM    3  C1  UNK   900      22.614 -39.070 -67.910  1.00  0.00     0.011 C 
HETATM    4  C2  UNK   900      23.650 -38.129 -67.249  1.00  0.00     0.149 C 
HETATM    5  C3  UNK   900      23.569 -37.996 -65.732  1.00  0.00     0.029 C 
HETATM    6  C4  UNK   900      21.184 -38.792 -67.355  1.00  0.00    -0.004 C 
HETATM    7  C5  UNK   900      22.684 -38.936 -69.462  1.00  0.00     0.052 C 
HETATM    8  C6  UNK   900      22.129 -37.819 -65.227  1.00  0.00     0.008 C 
HETATM    9  C7  UNK   900      21.168 -38.839 -65.818  1.00  0.00     0.006 C 
HETATM   10  C8  UNK   900      24.432 -36.746 -65.534  1.00  0.00     0.088 C 
HETATM   11  C9  UNK   900      23.045 -40.505 -67.702  1.00  0.00    -0.009 C 
HETATM   12  C10 UNK   900      22.868 -40.347 -70.039  1.00  0.00     0.147 C 
HETATM   13  C11 UNK   900      23.173 -41.188 -68.845  1.00  0.00    -0.058 C 
HETATM   14  C12 UNK   900      20.088 -39.720 -67.896  1.00  0.00     0.011 C 
HETATM   15  C13 UNK   900      24.048 -35.932 -66.751  1.00  0.00     0.263 C 
HETATM   16  C14 UNK   900      24.238 -35.997 -64.228  1.00  0.00     0.021 C 
HETATM   17  C15 UNK   900      23.568 -42.615 -68.978  1.00  0.00     0.046 C 
ENDROOT
BRANCH  12  18
HETATM   18  O2  UNK   900      21.676 -40.779 -70.675  1.00  0.00    -0.391 OA
HETATM   19  H22 UNK   900      21.149 -39.987 -70.878  1.00  0.00     0.210 HD
ENDBRANCH  12  18
TORSDOF 1
ENDMDL
MODEL 2
REMARK VINA RESULT:      -8.4      1.772      3.081
REMARK  1 active torsions:
REMARK  status: ('A' for Active; 'I' for Inactive)
REMARK    1  A    between atoms: O2_2  and  C10_13 
ROOT
HETATM    1  O1  UNK   900      21.651 -38.550 -66.956  1.00  0.00    -0.314 OA
HETATM    2  O3  UNK   900      21.868 -37.349 -65.011  1.00  0.00    -0.265 OA
HETATM    3  C1  UNK   900      22.109 -39.776 -69.064  1.00  0.00     0.011 C 
HETATM    4  C2  UNK   900      22.222 -38.450 -68.274  1.00  0.00     0.149 C 
HETATM    5  C3  UNK   900      23.634 -37.946 -68.000  1.00  0.00     0.029 C 
HETATM    6  C4  UNK   900      23.082 -40.847 -68.484  1.00  0.00    -0.004 C 
HETATM    7  C5  UNK   900      20.629 -40.267 -69.078  1.00  0.00     0.052 C 
HETATM    8  C6  UNK   900      24.580 -39.058 -67.522  1.00  0.00     0.008 C 
HETATM    9  C7  UNK   900      24.518 -40.300 -68.397  1.00  0.00     0.006 C 
HETATM   10  C8  UNK   900      23.334 -36.906 -66.916  1.00  0.00     0.088 C 
HETATM   11  C9  UNK   900      22.359 -39.502 -70.530  1.00  0.00    -0.009 C 
HETATM   12  C10 UNK   900      20.235 -40.506 -70.542  1.00  0.00     0.147 C 
HETATM   13  C11 UNK   900      21.356 -39.901 -71.320  1.00  0.00    -0.058 C 
HETATM   14  C12 UNK   900      23.100 -42.182 -69.241  1.00  0.00     0.011 C 
HETATM   15  C13 UNK   900      22.224 -37.596 -66.152  1.00  0.00     0.263 C 
HETATM   16  C14 UNK   900      24.502 -36.499 -66.036  1.00  0.00     0.021 C 
HETATM   17  C15 UNK   900      21.302 -39.785 -72.801  1.00  0.00     0.046 C 
ENDROOT
BRANCH  12  18
HETATM   18  O2  UNK   900      20.126 -41.896 -70.802  1.00  0.00    -0.391 OA
HETATM   19  H22 UNK   900      20.915 -42.162 -71.306  1.00  0.00     0.210 HD
ENDBRANCH  12  18
TORSDOF 1
ENDMDL
MODEL 3
REMARK VINA RESULT:      -8.3      1.541      5.340
REMARK  1 active torsions:
REMARK  status: ('A' for Active; 'I' for Inactive)
REMARK    1  A    between atoms: O2_2  and  C10_13 
ROOT
HETATM    1  O1  UNK   900      21.970 -37.679 -69.309  1.00  0.00    -0.314 OA
HETATM    2  O3  UNK   900      20.415 -38.508 -70.782  1.00  0.00    -0.265 OA
HETATM    3  C1  UNK   900      23.753 -37.462 -67.597  1.00  0.00     0.011 C 
HETATM    4  C2  UNK   900      22.341 -37.988 -67.953  1.00  0.00     0.149 C 
HETATM    5  C3  UNK   900      22.145 -39.498 -67.877  1.00  0.00     0.029 C 
HETATM    6  C4  UNK   900      24.850 -38.300 -68.321  1.00  0.00    -0.004 C 
HETATM    7  C5  UNK   900      23.856 -35.941 -67.925  1.00  0.00     0.052 C 
HETATM    8  C6  UNK   900      23.300 -40.281 -68.520  1.00  0.00     0.008 C 
HETATM    9  C7  UNK   900      24.666 -39.804 -68.053  1.00  0.00     0.006 C 
HETATM   10  C8  UNK   900      20.828 -39.628 -68.649  1.00  0.00     0.088 C 
HETATM   11  C9  UNK   900      23.920 -37.469 -66.095  1.00  0.00    -0.009 C 
HETATM   12  C10 UNK   900      24.347 -35.228 -66.658  1.00  0.00     0.147 C 
HETATM   13  C11 UNK   900      24.246 -36.271 -65.595  1.00  0.00    -0.058 C 
HETATM   14  C12 UNK   900      26.295 -37.905 -67.983  1.00  0.00     0.011 C 
HETATM   15  C13 UNK   900      21.016 -38.576 -69.722  1.00  0.00     0.263 C 
HETATM   16  C14 UNK   900      20.512 -41.003 -69.210  1.00  0.00     0.021 C 
HETATM   17  C15 UNK   900      24.490 -35.950 -64.164  1.00  0.00     0.046 C 
ENDROOT
BRANCH  12  18
HETATM   18  O2  UNK   900      25.689 -34.798 -66.823  1.00  0.00    -0.391 OA
HETATM   19  H22 UNK   900      25.675 -34.001 -67.380  1.00  0.00     0.210 HD
ENDBRANCH  12  18
TORSDOF 1
ENDMDL
MODEL 4
REMARK VINA RESULT:      -8.1      1.611      5.371
REMARK  1 active torsions:
REMARK  status: ('A' for Active; 'I' for Inactive)
REMARK    1  A    between atoms: O2_2  and  C10_13 
ROOT
HETATM    1  O1  UNK   900      23.574 -38.920 -68.345  1.00  0.00    -0.314 OA
HETATM    2  O3  UNK   900      23.247 -40.586 -69.891  1.00  0.00    -0.265 OA
HETATM    3  C1  UNK   900      23.272 -37.281 -66.507  1.00  0.00     0.011 C 
HETATM    4  C2  UNK   900      22.792 -37.804 -67.882  1.00  0.00     0.149 C 
HETATM    5  C3  UNK   900      21.364 -38.336 -67.941  1.00  0.00     0.029 C 
HETATM    6  C4  UNK   900      22.905 -38.291 -65.376  1.00  0.00    -0.004 C 
HETATM    7  C5  UNK   900      24.800 -36.975 -66.554  1.00  0.00     0.052 C 
HETATM    8  C6  UNK   900      21.021 -39.250 -66.754  1.00  0.00     0.008 C 
HETATM    9  C7  UNK   900      21.408 -38.644 -65.414  1.00  0.00     0.006 C 
HETATM   10  C8  UNK   900      21.420 -39.083 -69.277  1.00  0.00     0.088 C 
HETATM   11  C9  UNK   900      22.686 -35.908 -66.266  1.00  0.00    -0.009 C 
HETATM   12  C10 UNK   900      24.997 -35.533 -66.067  1.00  0.00     0.147 C 
HETATM   13  C11 UNK   900      23.613 -34.975 -66.023  1.00  0.00    -0.058 C 
HETATM   14  C12 UNK   900      23.276 -37.836 -63.958  1.00  0.00     0.011 C 
HETATM   15  C13 UNK   900      22.824 -39.647 -69.236  1.00  0.00     0.263 C 
HETATM   16  C14 UNK   900      20.356 -40.144 -69.498  1.00  0.00     0.021 C 
HETATM   17  C15 UNK   900      23.362 -33.537 -65.738  1.00  0.00     0.046 C 
ENDROOT
BRANCH  12  18
HETATM   18  O2  UNK   900      25.589 -35.525 -64.778  1.00  0.00    -0.391 OA
HETATM   19  H22 UNK   900      25.478 -36.414 -64.399  1.00  0.00     0.210 HD
ENDBRANCH  12  18
TORSDOF 1
ENDMDL
MODEL 5
REMARK VINA RESULT:      -8.1      2.138      5.513
REMARK  1 active torsions:
REMARK  status: ('A' for Active; 'I' for Inactive)
REMARK    1  A    between atoms: O2_2  and  C10_13 
ROOT
HETATM    1  O1  UNK   900      24.484 -38.260 -70.780  1.00  0.00    -0.314 OA
HETATM    2  O3  UNK   900      24.768 -39.053 -72.917  1.00  0.00    -0.265 OA
HETATM    3  C1  UNK   900      23.602 -37.795 -68.508  1.00  0.00     0.011 C 
HETATM    4  C2  UNK   900      23.366 -37.739 -70.037  1.00  0.00     0.149 C 
HETATM    5  C3  UNK   900      22.190 -38.551 -70.568  1.00  0.00     0.029 C 
HETATM    6  C4  UNK   900      23.541 -39.267 -67.996  1.00  0.00    -0.004 C 
HETATM    7  C5  UNK   900      24.950 -37.099 -68.148  1.00  0.00     0.052 C 
HETATM    8  C6  UNK   900      22.118 -39.961 -69.961  1.00  0.00     0.008 C 
HETATM    9  C7  UNK   900      22.241 -39.956 -68.446  1.00  0.00     0.006 C 
HETATM   10  C8  UNK   900      22.533 -38.557 -72.061  1.00  0.00     0.088 C 
HETATM   11  C9  UNK   900      22.596 -36.902 -67.818  1.00  0.00    -0.009 C 
HETATM   12  C10 UNK   900      24.653 -36.047 -67.071  1.00  0.00     0.147 C 
HETATM   13  C11 UNK   900      23.162 -35.970 -67.043  1.00  0.00    -0.058 C 
HETATM   14  C12 UNK   900      23.693 -39.430 -66.477  1.00  0.00     0.011 C 
HETATM   15  C13 UNK   900      24.041 -38.672 -72.013  1.00  0.00     0.263 C 
HETATM   16  C14 UNK   900      21.877 -39.644 -72.895  1.00  0.00     0.021 C 
HETATM   17  C15 UNK   900      22.450 -34.952 -66.227  1.00  0.00     0.046 C 
ENDROOT
BRANCH  12  18
HETATM   18  O2  UNK   900      25.164 -36.469 -65.816  1.00  0.00    -0.391 OA
HETATM   19  H22 UNK   900      24.404 -36.659 -65.240  1.00  0.00     0.210 HD
ENDBRANCH  12  18
TORSDOF 1
ENDMDL
MODEL 6
REMARK VINA RESULT:      -7.6      2.612      6.024
REMARK  1 active torsions:
REMARK  status: ('A' for Active; 'I' for Inactive)
REMARK    1  A    between atoms: O2_2  and  C10_13 
ROOT
HETATM    1  O1  UNK   900      24.790 -38.521 -70.382  1.00  0.00    -0.314 OA
HETATM    2  O3  UNK   900      24.336 -40.267 -71.804  1.00  0.00    -0.265 OA
HETATM    3  C1  UNK   900      24.588 -36.554 -68.883  1.00  0.00     0.011 C 
HETATM    4  C2  UNK   900      24.350 -37.154 -70.291  1.00  0.00     0.149 C 
HETATM    5  C3  UNK   900      22.900 -37.226 -70.756  1.00  0.00     0.029 C 
HETATM    6  C4  UNK   900      23.601 -37.173 -67.848  1.00  0.00    -0.004 C 
HETATM    7  C5  UNK   900      26.079 -36.744 -68.467  1.00  0.00     0.052 C 
HETATM    8  C6  UNK   900      21.951 -37.752 -69.668  1.00  0.00     0.008 C 
HETATM    9  C7  UNK   900      22.145 -37.053 -68.331  1.00  0.00     0.006 C 
HETATM   10  C8  UNK   900      23.053 -38.191 -71.936  1.00  0.00     0.088 C 
HETATM   11  C9  UNK   900      24.476 -35.049 -68.960  1.00  0.00    -0.009 C 
HETATM   12  C10 UNK   900      26.625 -35.366 -68.067  1.00  0.00     0.147 C 
HETATM   13  C11 UNK   900      25.566 -34.415 -68.515  1.00  0.00    -0.058 C 
HETATM   14  C12 UNK   900      23.706 -36.596 -66.429  1.00  0.00     0.011 C 
HETATM   15  C13 UNK   900      24.105 -39.139 -71.400  1.00  0.00     0.263 C 
HETATM   16  C14 UNK   900      21.790 -38.897 -72.393  1.00  0.00     0.021 C 
HETATM   17  C15 UNK   900      25.764 -32.942 -68.449  1.00  0.00     0.046 C 
ENDROOT
BRANCH  12  18
HETATM   18  O2  UNK   900      26.809 -35.298 -66.662  1.00  0.00    -0.391 OA
HETATM   19  H22 UNK   900      26.001 -35.643 -66.244  1.00  0.00     0.210 HD
ENDBRANCH  12  18
TORSDOF 1
ENDMDL
MODEL 7
REMARK VINA RESULT:      -6.6     11.367     13.240
REMARK  1 active torsions:
REMARK  status: ('A' for Active; 'I' for Inactive)
REMARK    1  A    between atoms: O2_2  and  C10_13 
ROOT
HETATM    1  O1  UNK   900      31.832 -49.202 -62.930  1.00  0.00    -0.314 OA
HETATM    2  O3  UNK   900      32.713 -50.758 -61.490  1.00  0.00    -0.265 OA
HETATM    3  C1  UNK   900      30.589 -47.285 -63.899  1.00  0.00     0.011 C 
HETATM    4  C2  UNK   900      30.529 -48.616 -63.110  1.00  0.00     0.149 C 
HETATM    5  C3  UNK   900      29.989 -48.532 -61.687  1.00  0.00     0.029 C 
HETATM    6  C4  UNK   900      31.219 -46.157 -63.027  1.00  0.00    -0.004 C 
HETATM    7  C5  UNK   900      31.354 -47.493 -65.242  1.00  0.00     0.052 C 
HETATM    8  C6  UNK   900      30.569 -47.347 -60.899  1.00  0.00     0.008 C 
HETATM    9  C7  UNK   900      30.502 -46.039 -61.671  1.00  0.00     0.006 C 
HETATM   10  C8  UNK   900      30.452 -49.892 -61.153  1.00  0.00     0.088 C 
HETATM   11  C9  UNK   900      29.200 -46.933 -64.383  1.00  0.00    -0.009 C 
HETATM   12  C10 UNK   900      30.450 -46.981 -66.372  1.00  0.00     0.147 C 
HETATM   13  C11 UNK   900      29.131 -46.763 -65.708  1.00  0.00    -0.058 C 
HETATM   14  C12 UNK   900      31.263 -44.773 -63.692  1.00  0.00     0.011 C 
HETATM   15  C13 UNK   900      31.798 -50.028 -61.834  1.00  0.00     0.263 C 
HETATM   16  C14 UNK   900      30.530 -50.028 -59.643  1.00  0.00     0.021 C 
HETATM   17  C15 UNK   900      27.917 -46.402 -66.487  1.00  0.00     0.046 C 
ENDROOT
BRANCH  12  18
HETATM   18  O2  UNK   900      30.960 -45.767 -66.899  1.00  0.00    -0.391 OA
HETATM   19  H22 UNK   900      31.841 -45.954 -67.266  1.00  0.00     0.210 HD
ENDBRANCH  12  18
TORSDOF 1
ENDMDL
MODEL 8
REMARK VINA RESULT:      -6.1     16.616     17.934
REMARK  1 active torsions:
REMARK  status: ('A' for Active; 'I' for Inactive)
REMARK    1  A    between atoms: O2_2  and  C10_13 
ROOT
HETATM    1  O1  UNK   900      25.131 -21.930 -71.897  1.00  0.00    -0.314 OA
HETATM    2  O3  UNK   900      25.297 -21.040 -69.786  1.00  0.00    -0.265 OA
HETATM    3  C1  UNK   900      24.484 -22.380 -74.249  1.00  0.00     0.011 C 
HETATM    4  C2  UNK   900      24.035 -22.251 -72.773  1.00  0.00     0.149 C 
HETATM    5  C3  UNK   900      23.019 -21.156 -72.470  1.00  0.00     0.029 C 
HETATM    6  C4  UNK   900      24.836 -20.981 -74.841  1.00  0.00    -0.004 C 
HETATM    7  C5  UNK   900      25.670 -23.386 -74.363  1.00  0.00     0.052 C 
HETATM    8  C6  UNK   900      23.359 -19.823 -73.154  1.00  0.00     0.008 C 
HETATM    9  C7  UNK   900      23.682 -19.985 -74.631  1.00  0.00     0.006 C 
HETATM   10  C8  UNK   900      23.146 -21.098 -70.945  1.00  0.00     0.088 C 
HETATM   11  C9  UNK   900      23.402 -23.083 -75.037  1.00  0.00    -0.009 C 
HETATM   12  C10 UNK   900      25.287 -24.434 -75.417  1.00  0.00     0.147 C 
HETATM   13  C11 UNK   900      23.837 -24.180 -75.667  1.00  0.00    -0.058 C 
HETATM   14  C12 UNK   900      25.228 -20.986 -76.325  1.00  0.00     0.011 C 
HETATM   15  C13 UNK   900      24.632 -21.325 -70.769  1.00  0.00     0.263 C 
HETATM   16  C14 UNK   900      22.653 -19.826 -70.278  1.00  0.00     0.021 C 
HETATM   17  C15 UNK   900      23.026 -25.081 -76.528  1.00  0.00     0.046 C 
ENDROOT
BRANCH  12  18
HETATM   18  O2  UNK   900      26.048 -24.245 -76.599  1.00  0.00    -0.391 OA
HETATM   19  H22 UNK   900      26.963 -24.511 -76.404  1.00  0.00     0.210 HD
ENDBRANCH  12  18
TORSDOF 1
ENDMDL
MODEL 9
REMARK VINA RESULT:      -6.1     16.786     18.662
REMARK  1 active torsions:
REMARK  status: ('A' for Active; 'I' for Inactive)
REMARK    1  A    between atoms: O2_2  and  C10_13 
ROOT
HETATM    1  O1  UNK   900      23.662 -21.767 -75.589  1.00  0.00    -0.314 OA
HETATM    2  O3  UNK   900      22.777 -22.548 -77.560  1.00  0.00    -0.265 OA
HETATM    3  C1  UNK   900      24.907 -21.558 -73.453  1.00  0.00     0.011 C 
HETATM    4  C2  UNK   900      23.837 -22.321 -74.272  1.00  0.00     0.149 C 
HETATM    5  C3  UNK   900      24.125 -23.792 -74.552  1.00  0.00     0.029 C 
HETATM    6  C4  UNK   900      26.335 -21.850 -74.006  1.00  0.00    -0.004 C 
HETATM    7  C5  UNK   900      24.579 -20.034 -73.433  1.00  0.00     0.052 C 
HETATM    8  C6  UNK   900      25.573 -24.040 -75.003  1.00  0.00     0.008 C 
HETATM    9  C7  UNK   900      26.593 -23.364 -74.100  1.00  0.00     0.006 C 
HETATM   10  C8  UNK   900      23.099 -24.051 -75.659  1.00  0.00     0.088 C 
HETATM   11  C9  UNK   900      24.767 -21.925 -71.993  1.00  0.00    -0.009 C 
HETATM   12  C10 UNK   900      24.555 -19.586 -71.966  1.00  0.00     0.147 C 
HETATM   13  C11 UNK   900      24.586 -20.865 -71.198  1.00  0.00    -0.058 C 
HETATM   14  C12 UNK   900      27.479 -21.195 -73.220  1.00  0.00     0.011 C 
HETATM   15  C13 UNK   900      23.146 -22.738 -76.412  1.00  0.00     0.263 C 
HETATM   16  C14 UNK   900      23.358 -25.257 -76.545  1.00  0.00     0.021 C 
HETATM   17  C15 UNK   900      24.428 -20.889 -69.719  1.00  0.00     0.046 C 
ENDROOT
BRANCH  12  18
HETATM   18  O2  UNK   900      25.693 -18.790 -71.675  1.00  0.00    -0.391 OA
HETATM   19  H22 UNK   900      26.197 -19.243 -70.978  1.00  0.00     0.210 HD
ENDBRANCH  12  18
TORSDOF 1
ENDMDL
