MODEL 1
REMARK VINA RESULT:      -7.8      0.000      0.000
REMARK  7 active torsions:
REMARK  status: ('A' for Active; 'I' for Inactive)
REMARK    1  A    between atoms: O1_1  and  C7_15 
REMARK    2  A    between atoms: O3_3  and  C15_23 
REMARK    3  A    between atoms: N1_6  and  C3_11 
REMARK       I    between atoms: N1_6  and  C4_12 
REMARK    4  A    between atoms: N2_7  and  C2_10 
REMARK       I    between atoms: N2_7  and  C14_22 
REMARK    5  A    between atoms: C1_9  and  C4_12 
REMARK    6  A    between atoms: C5_13  and  C15_23 
REMARK    7  A    between atoms: C14_22  and  C16_24 
ROOT
HETATM    1  C1  UNK   900      33.691 -51.960 -59.505  1.00  0.00     0.059 A 
HETATM    2  C2  UNK   900      34.956 -52.345 -59.952  1.00  0.00     0.050 A 
HETATM    3  C6  UNK   900      32.847 -52.898 -58.910  1.00  0.00     0.019 A 
HETATM    4  C8  UNK   900      35.375 -53.668 -59.804  1.00  0.00     0.030 A 
HETATM    5  C10 UNK   900      33.266 -54.220 -58.764  1.00  0.00     0.001 A 
HETATM    6  C11 UNK   900      34.531 -54.605 -59.210  1.00  0.00     0.002 A 
ENDROOT
BRANCH   1   7
HETATM    7  C4  UNK   900      33.222 -50.587 -59.645  1.00  0.00     0.258 C 
HETATM    8  O2  UNK   900      33.584 -49.743 -58.812  1.00  0.00    -0.267 OA
HETATM    9  N1  UNK   900      32.362 -50.345 -60.723  1.00  0.00    -0.320 N 
HETATM   10  H1  UNK   900      32.018 -51.168 -61.212  1.00  0.00     0.169 HD
BRANCH   9  11
HETATM   11  C3  UNK   900      31.736 -49.128 -61.093  1.00  0.00     0.085 A 
HETATM   12  C5  UNK   900      32.432 -48.175 -61.836  1.00  0.00     0.069 A 
HETATM   13  C9  UNK   900      31.809 -46.981 -62.195  1.00  0.00     0.020 A 
HETATM   14  C13 UNK   900      30.489 -46.740 -61.813  1.00  0.00     0.004 A 
HETATM   15  C12 UNK   900      29.793 -47.693 -61.070  1.00  0.00     0.039 A 
HETATM   16  C7  UNK   900      30.416 -48.888 -60.711  1.00  0.00     0.093 A 
BRANCH  12  17
HETATM   17  C15 UNK   900      33.812 -48.394 -62.253  1.00  0.00     0.295 C 
HETATM   18  O5  UNK   900      34.797 -47.929 -61.670  1.00  0.00    -0.259 OA
BRANCH  17  19
HETATM   19  O3  UNK   900      33.878 -49.178 -63.371  1.00  0.00    -0.322 OA
HETATM   20  C21 UNK   900      34.309 -48.542 -64.579  1.00  0.00     0.213 C 
ENDBRANCH  17  19
ENDBRANCH  12  17
BRANCH  16  21
HETATM   21  O1  UNK   900      29.716 -49.805 -59.984  1.00  0.00    -0.358 OA
HETATM   22  H11 UNK   900      29.109 -49.339 -59.383  1.00  0.00     0.217 HD
ENDBRANCH  16  21
ENDBRANCH   9  11
ENDBRANCH   1   7
BRANCH   2  23
HETATM   23  N2  UNK   900      35.817 -51.424 -60.553  1.00  0.00    -0.322 N 
HETATM   24  C14 UNK   900      36.455 -51.526 -61.795  1.00  0.00     0.257 C 
HETATM   25  O4  UNK   900      36.372 -52.455 -62.593  1.00  0.00    -0.267 OA
HETATM   26  H4  UNK   900      36.002 -50.593 -60.001  1.00  0.00     0.169 HD
BRANCH  24  27
HETATM   27  C16 UNK   900      37.295 -50.361 -62.177  1.00  0.00     0.049 A 
HETATM   28  C17 UNK   900      37.892 -49.560 -61.210  1.00  0.00     0.020 A 
HETATM   29  C19 UNK   900      38.671 -48.476 -61.597  1.00  0.00     0.020 A 
HETATM   30  C20 UNK   900      38.820 -48.236 -62.954  1.00  0.00     0.116 A 
HETATM   31  N3  UNK   900      38.256 -48.991 -63.922  1.00  0.00    -0.272 NA
HETATM   32  C18 UNK   900      37.506 -50.037 -63.508  1.00  0.00     0.133 A 
ENDBRANCH  24  27
ENDBRANCH   2  23
TORSDOF 7
ENDMDL
MODEL 2
REMARK VINA RESULT:      -7.7      1.554      2.269
REMARK  7 active torsions:
REMARK  status: ('A' for Active; 'I' for Inactive)
REMARK    1  A    between atoms: O1_1  and  C7_15 
REMARK    2  A    between atoms: O3_3  and  C15_23 
REMARK    3  A    between atoms: N1_6  and  C3_11 
REMARK       I    between atoms: N1_6  and  C4_12 
REMARK    4  A    between atoms: N2_7  and  C2_10 
REMARK       I    between atoms: N2_7  and  C14_22 
REMARK    5  A    between atoms: C1_9  and  C4_12 
REMARK    6  A    between atoms: C5_13  and  C15_23 
REMARK    7  A    between atoms: C14_22  and  C16_24 
ROOT
HETATM    1  C1  UNK   900      32.867 -51.414 -60.049  1.00  0.00     0.059 A 
HETATM    2  C2  UNK   900      34.147 -51.929 -59.837  1.00  0.00     0.050 A 
HETATM    3  C6  UNK   900      31.748 -52.140 -59.645  1.00  0.00     0.019 A 
HETATM    4  C8  UNK   900      34.306 -53.171 -59.221  1.00  0.00     0.030 A 
HETATM    5  C10 UNK   900      31.906 -53.383 -59.030  1.00  0.00     0.001 A 
HETATM    6  C11 UNK   900      33.186 -53.897 -58.818  1.00  0.00     0.002 A 
ENDROOT
BRANCH   1   7
HETATM    7  C4  UNK   900      32.667 -50.120 -60.690  1.00  0.00     0.258 C 
HETATM    8  O2  UNK   900      33.328 -49.843 -61.701  1.00  0.00    -0.267 OA
HETATM    9  N1  UNK   900      31.737 -49.273 -60.073  1.00  0.00    -0.320 N 
HETATM   10  H1  UNK   900      31.407 -49.567 -59.156  1.00  0.00     0.169 HD
BRANCH   9  11
HETATM   11  C3  UNK   900      31.356 -47.962 -60.450  1.00  0.00     0.085 A 
HETATM   12  C5  UNK   900      30.456 -47.764 -61.497  1.00  0.00     0.069 A 
HETATM   13  C9  UNK   900      30.086 -46.470 -61.862  1.00  0.00     0.020 A 
HETATM   14  C13 UNK   900      30.614 -45.374 -61.180  1.00  0.00     0.004 A 
HETATM   15  C12 UNK   900      31.515 -45.572 -60.134  1.00  0.00     0.039 A 
HETATM   16  C7  UNK   900      31.885 -46.866 -59.768  1.00  0.00     0.093 A 
BRANCH  12  17
HETATM   17  C15 UNK   900      29.883 -48.886 -62.231  1.00  0.00     0.295 C 
HETATM   18  O5  UNK   900      29.289 -49.833 -61.704  1.00  0.00    -0.259 OA
BRANCH  17  19
HETATM   19  O3  UNK   900      30.086 -48.758 -63.577  1.00  0.00    -0.322 OA
HETATM   20  C21 UNK   900      31.445 -48.710 -64.022  1.00  0.00     0.213 C 
ENDBRANCH  17  19
ENDBRANCH  12  17
BRANCH  16  21
HETATM   21  O1  UNK   900      32.766 -47.035 -58.741  1.00  0.00    -0.358 OA
HETATM   22  H11 UNK   900      32.361 -47.603 -58.064  1.00  0.00     0.217 HD
ENDBRANCH  16  21
ENDBRANCH   9  11
ENDBRANCH   1   7
BRANCH   2  23
HETATM   23  N2  UNK   900      35.283 -51.220 -60.235  1.00  0.00    -0.322 N 
HETATM   24  C14 UNK   900      36.159 -51.518 -61.286  1.00  0.00     0.257 C 
HETATM   25  O4  UNK   900      36.087 -52.469 -62.058  1.00  0.00    -0.267 OA
HETATM   26  H4  UNK   900      35.490 -50.399 -59.676  1.00  0.00     0.169 HD
BRANCH  24  27
HETATM   27  C16 UNK   900      37.270 -50.551 -61.483  1.00  0.00     0.049 A 
HETATM   28  C17 UNK   900      38.062 -50.143 -60.416  1.00  0.00     0.020 A 
HETATM   29  C19 UNK   900      39.094 -49.236 -60.630  1.00  0.00     0.020 A 
HETATM   30  C20 UNK   900      39.289 -48.768 -61.920  1.00  0.00     0.116 A 
HETATM   31  N3  UNK   900      38.540 -49.141 -62.981  1.00  0.00    -0.272 NA
HETATM   32  C18 UNK   900      37.547 -50.025 -62.735  1.00  0.00     0.133 A 
ENDBRANCH  24  27
ENDBRANCH   2  23
TORSDOF 7
ENDMDL
MODEL 3
REMARK VINA RESULT:      -7.5      1.377      2.870
REMARK  7 active torsions:
REMARK  status: ('A' for Active; 'I' for Inactive)
REMARK    1  A    between atoms: O1_1  and  C7_15 
REMARK    2  A    between atoms: O3_3  and  C15_23 
REMARK    3  A    between atoms: N1_6  and  C3_11 
REMARK       I    between atoms: N1_6  and  C4_12 
REMARK    4  A    between atoms: N2_7  and  C2_10 
REMARK       I    between atoms: N2_7  and  C14_22 
REMARK    5  A    between atoms: C1_9  and  C4_12 
REMARK    6  A    between atoms: C5_13  and  C15_23 
REMARK    7  A    between atoms: C14_22  and  C16_24 
ROOT
HETATM    1  C1  UNK   900      33.691 -51.068 -60.381  1.00  0.00     0.059 A 
HETATM    2  C2  UNK   900      35.033 -51.449 -60.376  1.00  0.00     0.050 A 
HETATM    3  C6  UNK   900      32.737 -51.864 -59.748  1.00  0.00     0.019 A 
HETATM    4  C8  UNK   900      35.421 -52.627 -59.737  1.00  0.00     0.030 A 
HETATM    5  C10 UNK   900      33.125 -53.043 -59.110  1.00  0.00     0.001 A 
HETATM    6  C11 UNK   900      34.468 -53.424 -59.104  1.00  0.00     0.002 A 
ENDROOT
BRANCH   1   7
HETATM    7  C4  UNK   900      33.252 -49.843 -61.040  1.00  0.00     0.258 C 
HETATM    8  O2  UNK   900      33.708 -48.758 -60.651  1.00  0.00    -0.267 OA
HETATM    9  N1  UNK   900      32.311 -50.007 -62.064  1.00  0.00    -0.320 N 
HETATM   10  H1  UNK   900      31.903 -50.935 -62.149  1.00  0.00     0.169 HD
BRANCH   9  11
HETATM   11  C3  UNK   900      31.692 -49.009 -62.857  1.00  0.00     0.085 A 
HETATM   12  C5  UNK   900      30.448 -48.494 -62.494  1.00  0.00     0.069 A 
HETATM   13  C9  UNK   900      29.844 -47.512 -63.279  1.00  0.00     0.020 A 
HETATM   14  C13 UNK   900      30.485 -47.045 -64.426  1.00  0.00     0.004 A 
HETATM   15  C12 UNK   900      31.729 -47.560 -64.789  1.00  0.00     0.039 A 
HETATM   16  C7  UNK   900      32.333 -48.542 -64.004  1.00  0.00     0.093 A 
BRANCH  12  17
HETATM   17  C15 UNK   900      29.749 -48.958 -61.301  1.00  0.00     0.295 C 
HETATM   18  O5  UNK   900      28.940 -49.892 -61.288  1.00  0.00    -0.259 OA
BRANCH  17  19
HETATM   19  O3  UNK   900      30.103 -48.230 -60.199  1.00  0.00    -0.322 OA
HETATM   20  C21 UNK   900      30.383 -48.966 -59.004  1.00  0.00     0.213 C 
ENDBRANCH  17  19
ENDBRANCH  12  17
BRANCH  16  21
HETATM   21  O1  UNK   900      33.550 -49.031 -64.378  1.00  0.00    -0.358 OA
HETATM   22  H11 UNK   900      33.458 -49.972 -64.606  1.00  0.00     0.217 HD
ENDBRANCH  16  21
ENDBRANCH   9  11
ENDBRANCH   1   7
BRANCH   2  23
HETATM   23  N2  UNK   900      36.005 -50.668 -61.006  1.00  0.00    -0.322 N 
HETATM   24  C14 UNK   900      36.687 -50.939 -62.198  1.00  0.00     0.257 C 
HETATM   25  O4  UNK   900      36.554 -51.925 -62.916  1.00  0.00    -0.267 OA
HETATM   26  H4  UNK   900      36.242 -49.810 -60.519  1.00  0.00     0.169 HD
BRANCH  24  27
HETATM   27  C16 UNK   900      37.651 -49.894 -62.632  1.00  0.00     0.049 A 
HETATM   28  C17 UNK   900      37.862 -48.752 -61.868  1.00  0.00     0.020 A 
HETATM   29  C19 UNK   900      38.769 -47.791 -62.300  1.00  0.00     0.020 A 
HETATM   30  C20 UNK   900      39.433 -48.017 -63.495  1.00  0.00     0.116 A 
HETATM   31  N3  UNK   900      39.254 -49.113 -64.265  1.00  0.00    -0.272 NA
HETATM   32  C18 UNK   900      38.365 -50.026 -63.813  1.00  0.00     0.133 A 
ENDBRANCH  24  27
ENDBRANCH   2  23
TORSDOF 7
ENDMDL
MODEL 4
REMARK VINA RESULT:      -7.3     10.007     11.588
REMARK  7 active torsions:
REMARK  status: ('A' for Active; 'I' for Inactive)
REMARK    1  A    between atoms: O1_1  and  C7_15 
REMARK    2  A    between atoms: O3_3  and  C15_23 
REMARK    3  A    between atoms: N1_6  and  C3_11 
REMARK       I    between atoms: N1_6  and  C4_12 
REMARK    4  A    between atoms: N2_7  and  C2_10 
REMARK       I    between atoms: N2_7  and  C14_22 
REMARK    5  A    between atoms: C1_9  and  C4_12 
REMARK    6  A    between atoms: C5_13  and  C15_23 
REMARK    7  A    between atoms: C14_22  and  C16_24 
ROOT
HETATM    1  C1  UNK   900      37.295 -41.154 -55.205  1.00  0.00     0.059 A 
HETATM    2  C2  UNK   900      38.233 -41.760 -56.041  1.00  0.00     0.050 A 
HETATM    3  C6  UNK   900      37.552 -41.035 -53.839  1.00  0.00     0.019 A 
HETATM    4  C8  UNK   900      39.428 -42.249 -55.511  1.00  0.00     0.030 A 
HETATM    5  C10 UNK   900      38.747 -41.524 -53.309  1.00  0.00     0.001 A 
HETATM    6  C11 UNK   900      39.684 -42.131 -54.146  1.00  0.00     0.002 A 
ENDROOT
BRANCH   1   7
HETATM    7  C4  UNK   900      36.037 -40.633 -55.726  1.00  0.00     0.258 C 
HETATM    8  O2  UNK   900      35.222 -41.424 -56.225  1.00  0.00    -0.267 OA
HETATM    9  N1  UNK   900      35.869 -39.246 -55.637  1.00  0.00    -0.320 N 
HETATM   10  H1  UNK   900      36.694 -38.714 -55.367  1.00  0.00     0.169 HD
BRANCH   9  11
HETATM   11  C3  UNK   900      34.774 -38.462 -56.077  1.00  0.00     0.085 A 
HETATM   12  C5  UNK   900      34.938 -37.540 -57.110  1.00  0.00     0.069 A 
HETATM   13  C9  UNK   900      33.856 -36.772 -57.538  1.00  0.00     0.020 A 
HETATM   14  C13 UNK   900      32.608 -36.928 -56.933  1.00  0.00     0.004 A 
HETATM   15  C12 UNK   900      32.444 -37.850 -55.900  1.00  0.00     0.039 A 
HETATM   16  C7  UNK   900      33.526 -38.618 -55.473  1.00  0.00     0.093 A 
BRANCH  12  17
HETATM   17  C15 UNK   900      36.227 -37.352 -57.765  1.00  0.00     0.295 C 
HETATM   18  O5  UNK   900      36.438 -37.567 -58.964  1.00  0.00    -0.259 OA
BRANCH  17  19
HETATM   19  O3  UNK   900      37.175 -36.908 -56.885  1.00  0.00    -0.322 OA
HETATM   20  C21 UNK   900      37.297 -35.490 -56.731  1.00  0.00     0.213 C 
ENDBRANCH  17  19
ENDBRANCH  12  17
BRANCH  16  21
HETATM   21  O1  UNK   900      33.342 -39.513 -54.461  1.00  0.00    -0.358 OA
HETATM   22  H11 UNK   900      34.143 -40.056 -54.367  1.00  0.00     0.217 HD
ENDBRANCH  16  21
ENDBRANCH   9  11
ENDBRANCH   1   7
BRANCH   2  23
HETATM   23  N2  UNK   900      37.996 -41.892 -57.412  1.00  0.00    -0.322 N 
HETATM   24  C14 UNK   900      38.303 -40.982 -58.430  1.00  0.00     0.257 C 
HETATM   25  O4  UNK   900      38.843 -39.888 -58.302  1.00  0.00    -0.267 OA
HETATM   26  H4  UNK   900      37.532 -42.753 -57.681  1.00  0.00     0.169 HD
BRANCH  24  27
HETATM   27  C16 UNK   900      37.950 -41.422 -59.805  1.00  0.00     0.049 A 
HETATM   28  C17 UNK   900      38.045 -42.759 -60.177  1.00  0.00     0.020 A 
HETATM   29  C19 UNK   900      37.710 -43.140 -61.471  1.00  0.00     0.020 A 
HETATM   30  C20 UNK   900      37.290 -42.155 -62.349  1.00  0.00     0.116 A 
HETATM   31  N3  UNK   900      37.185 -40.847 -62.025  1.00  0.00    -0.272 NA
HETATM   32  C18 UNK   900      37.519 -40.513 -60.758  1.00  0.00     0.133 A 
ENDBRANCH  24  27
ENDBRANCH   2  23
TORSDOF 7
ENDMDL
MODEL 5
REMARK VINA RESULT:      -6.9     10.639     13.053
REMARK  7 active torsions:
REMARK  status: ('A' for Active; 'I' for Inactive)
REMARK    1  A    between atoms: O1_1  and  C7_15 
REMARK    2  A    between atoms: O3_3  and  C15_23 
REMARK    3  A    between atoms: N1_6  and  C3_11 
REMARK       I    between atoms: N1_6  and  C4_12 
REMARK    4  A    between atoms: N2_7  and  C2_10 
REMARK       I    between atoms: N2_7  and  C14_22 
REMARK    5  A    between atoms: C1_9  and  C4_12 
REMARK    6  A    between atoms: C5_13  and  C15_23 
REMARK    7  A    between atoms: C14_22  and  C16_24 
ROOT
HETATM    1  C1  UNK   900      34.902 -37.612 -57.135  1.00  0.00     0.059 A 
HETATM    2  C2  UNK   900      34.747 -38.407 -55.998  1.00  0.00     0.050 A 
HETATM    3  C6  UNK   900      33.816 -36.900 -57.642  1.00  0.00     0.019 A 
HETATM    4  C8  UNK   900      33.504 -38.489 -55.369  1.00  0.00     0.030 A 
HETATM    5  C10 UNK   900      32.573 -36.983 -57.013  1.00  0.00     0.001 A 
HETATM    6  C11 UNK   900      32.418 -37.777 -55.876  1.00  0.00     0.002 A 
ENDROOT
BRANCH   1   7
HETATM    7  C4  UNK   900      36.187 -37.505 -57.816  1.00  0.00     0.258 C 
HETATM    8  O2  UNK   900      37.176 -37.123 -57.174  1.00  0.00    -0.267 OA
HETATM    9  N1  UNK   900      36.182 -37.828 -59.179  1.00  0.00    -0.320 N 
HETATM   10  H1  UNK   900      35.265 -37.953 -59.603  1.00  0.00     0.169 HD
BRANCH   9  11
HETATM   11  C3  UNK   900      37.262 -37.794 -60.095  1.00  0.00     0.085 A 
HETATM   12  C5  UNK   900      37.704 -38.968 -60.706  1.00  0.00     0.069 A 
HETATM   13  C9  UNK   900      38.768 -38.926 -61.607  1.00  0.00     0.020 A 
HETATM   14  C13 UNK   900      39.389 -37.712 -61.897  1.00  0.00     0.004 A 
HETATM   15  C12 UNK   900      38.947 -36.538 -61.286  1.00  0.00     0.039 A 
HETATM   16  C7  UNK   900      37.883 -36.580 -60.386  1.00  0.00     0.093 A 
BRANCH  12  17
HETATM   17  C15 UNK   900      37.078 -40.254 -60.427  1.00  0.00     0.295 C 
HETATM   18  O5  UNK   900      36.539 -40.967 -61.281  1.00  0.00    -0.259 OA
BRANCH  17  19
HETATM   19  O3  UNK   900      37.161 -40.573 -59.099  1.00  0.00    -0.322 OA
HETATM   20  C21 UNK   900      38.262 -41.397 -58.703  1.00  0.00     0.213 C 
ENDBRANCH  17  19
ENDBRANCH  12  17
BRANCH  16  21
HETATM   21  O1  UNK   900      37.468 -35.420 -59.800  1.00  0.00    -0.358 OA
HETATM   22  H11 UNK   900      37.106 -34.830 -60.484  1.00  0.00     0.217 HD
ENDBRANCH  16  21
ENDBRANCH   9  11
ENDBRANCH   1   7
BRANCH   2  23
HETATM   23  N2  UNK   900      35.821 -39.131 -55.475  1.00  0.00    -0.322 N 
HETATM   24  C14 UNK   900      36.103 -40.492 -55.641  1.00  0.00     0.257 C 
HETATM   25  O4  UNK   900      35.450 -41.307 -56.284  1.00  0.00    -0.267 OA
HETATM   26  H4  UNK   900      36.456 -38.591 -54.896  1.00  0.00     0.169 HD
BRANCH  24  27
HETATM   27  C16 UNK   900      37.345 -40.969 -54.978  1.00  0.00     0.049 A 
HETATM   28  C17 UNK   900      37.706 -42.312 -55.013  1.00  0.00     0.020 A 
HETATM   29  C19 UNK   900      38.873 -42.729 -54.383  1.00  0.00     0.020 A 
HETATM   30  C20 UNK   900      39.638 -41.772 -53.735  1.00  0.00     0.116 A 
HETATM   31  N3  UNK   900      39.320 -40.460 -53.679  1.00  0.00    -0.272 NA
HETATM   32  C18 UNK   900      38.179 -40.091 -54.304  1.00  0.00     0.133 A 
ENDBRANCH  24  27
ENDBRANCH   2  23
TORSDOF 7
ENDMDL
MODEL 6
REMARK VINA RESULT:      -6.8     11.316     13.609
REMARK  7 active torsions:
REMARK  status: ('A' for Active; 'I' for Inactive)
REMARK    1  A    between atoms: O1_1  and  C7_15 
REMARK    2  A    between atoms: O3_3  and  C15_23 
REMARK    3  A    between atoms: N1_6  and  C3_11 
REMARK       I    between atoms: N1_6  and  C4_12 
REMARK    4  A    between atoms: N2_7  and  C2_10 
REMARK       I    between atoms: N2_7  and  C14_22 
REMARK    5  A    between atoms: C1_9  and  C4_12 
REMARK    6  A    between atoms: C5_13  and  C15_23 
REMARK    7  A    between atoms: C14_22  and  C16_24 
ROOT
HETATM    1  C1  UNK   900      34.953 -37.617 -57.152  1.00  0.00     0.059 A 
HETATM    2  C2  UNK   900      34.721 -38.429 -56.042  1.00  0.00     0.050 A 
HETATM    3  C6  UNK   900      33.926 -36.822 -57.662  1.00  0.00     0.019 A 
HETATM    4  C8  UNK   900      33.461 -38.447 -55.441  1.00  0.00     0.030 A 
HETATM    5  C10 UNK   900      32.666 -36.841 -57.062  1.00  0.00     0.001 A 
HETATM    6  C11 UNK   900      32.434 -37.653 -55.952  1.00  0.00     0.002 A 
ENDROOT
BRANCH   1   7
HETATM    7  C4  UNK   900      36.256 -37.575 -57.803  1.00  0.00     0.258 C 
HETATM    8  O2  UNK   900      37.277 -37.546 -57.099  1.00  0.00    -0.267 OA
HETATM    9  N1  UNK   900      36.237 -37.545 -59.203  1.00  0.00    -0.320 N 
HETATM   10  H1  UNK   900      35.327 -37.396 -59.633  1.00  0.00     0.169 HD
BRANCH   9  11
HETATM   11  C3  UNK   900      37.335 -37.479 -60.097  1.00  0.00     0.085 A 
HETATM   12  C5  UNK   900      37.820 -36.244 -60.525  1.00  0.00     0.069 A 
HETATM   13  C9  UNK   900      38.900 -36.187 -61.406  1.00  0.00     0.020 A 
HETATM   14  C13 UNK   900      39.496 -37.365 -61.855  1.00  0.00     0.004 A 
HETATM   15  C12 UNK   900      39.011 -38.600 -61.427  1.00  0.00     0.039 A 
HETATM   16  C7  UNK   900      37.931 -38.657 -60.546  1.00  0.00     0.093 A 
BRANCH  12  17
HETATM   17  C15 UNK   900      37.222 -34.993 -60.075  1.00  0.00     0.295 C 
HETATM   18  O5  UNK   900      37.170 -34.631 -58.895  1.00  0.00    -0.259 OA
BRANCH  17  19
HETATM   19  O3  UNK   900      36.724 -34.271 -61.125  1.00  0.00    -0.322 OA
HETATM   20  C21 UNK   900      37.221 -32.938 -61.282  1.00  0.00     0.213 C 
ENDBRANCH  17  19
ENDBRANCH  12  17
BRANCH  16  21
HETATM   21  O1  UNK   900      37.474 -39.876 -60.141  1.00  0.00    -0.358 OA
HETATM   22  H11 UNK   900      36.992 -40.296 -60.874  1.00  0.00     0.217 HD
ENDBRANCH  16  21
ENDBRANCH   9  11
ENDBRANCH   1   7
BRANCH   2  23
HETATM   23  N2  UNK   900      35.734 -39.235 -55.516  1.00  0.00    -0.322 N 
HETATM   24  C14 UNK   900      35.909 -40.614 -55.680  1.00  0.00     0.257 C 
HETATM   25  O4  UNK   900      35.194 -41.376 -56.323  1.00  0.00    -0.267 OA
HETATM   26  H4  UNK   900      36.408 -38.745 -54.936  1.00  0.00     0.169 HD
BRANCH  24  27
HETATM   27  C16 UNK   900      37.108 -41.187 -55.015  1.00  0.00     0.049 A 
HETATM   28  C17 UNK   900      37.823 -40.457 -54.071  1.00  0.00     0.020 A 
HETATM   29  C19 UNK   900      38.941 -41.019 -53.467  1.00  0.00     0.020 A 
HETATM   30  C20 UNK   900      39.303 -42.304 -53.839  1.00  0.00     0.116 A 
HETATM   31  N3  UNK   900      38.634 -43.044 -54.752  1.00  0.00    -0.272 NA
HETATM   32  C18 UNK   900      37.551 -42.465 -55.317  1.00  0.00     0.133 A 
ENDBRANCH  24  27
ENDBRANCH   2  23
TORSDOF 7
ENDMDL
MODEL 7
REMARK VINA RESULT:      -6.8     27.859     31.499
REMARK  7 active torsions:
REMARK  status: ('A' for Active; 'I' for Inactive)
REMARK    1  A    between atoms: O1_1  and  C7_15 
REMARK    2  A    between atoms: O3_3  and  C15_23 
REMARK    3  A    between atoms: N1_6  and  C3_11 
REMARK       I    between atoms: N1_6  and  C4_12 
REMARK    4  A    between atoms: N2_7  and  C2_10 
REMARK       I    between atoms: N2_7  and  C14_22 
REMARK    5  A    between atoms: C1_9  and  C4_12 
REMARK    6  A    between atoms: C5_13  and  C15_23 
REMARK    7  A    between atoms: C14_22  and  C16_24 
ROOT
HETATM    1  C1  UNK   900       6.231 -48.186 -76.419  1.00  0.00     0.059 A 
HETATM    2  C2  UNK   900       6.929 -47.598 -75.362  1.00  0.00     0.050 A 
HETATM    3  C6  UNK   900       5.453 -47.396 -77.265  1.00  0.00     0.019 A 
HETATM    4  C8  UNK   900       6.846 -46.221 -75.152  1.00  0.00     0.030 A 
HETATM    5  C10 UNK   900       5.370 -46.020 -77.054  1.00  0.00     0.001 A 
HETATM    6  C11 UNK   900       6.067 -45.432 -75.998  1.00  0.00     0.002 A 
ENDROOT
BRANCH   1   7
HETATM    7  C4  UNK   900       6.296 -49.621 -76.666  1.00  0.00     0.258 C 
HETATM    8  O2  UNK   900       5.671 -50.386 -75.916  1.00  0.00    -0.267 OA
HETATM    9  N1  UNK   900       7.099 -50.018 -77.742  1.00  0.00    -0.320 N 
HETATM   10  H1  UNK   900       7.685 -49.293 -78.151  1.00  0.00     0.169 HD
BRANCH   9  11
HETATM   11  C3  UNK   900       7.369 -51.331 -78.201  1.00  0.00     0.085 A 
HETATM   12  C5  UNK   900       6.603 -51.891 -79.223  1.00  0.00     0.069 A 
HETATM   13  C9  UNK   900       6.875 -53.184 -79.669  1.00  0.00     0.020 A 
HETATM   14  C13 UNK   900       7.914 -53.916 -79.094  1.00  0.00     0.004 A 
HETATM   15  C12 UNK   900       8.679 -53.356 -78.072  1.00  0.00     0.039 A 
HETATM   16  C7  UNK   900       8.408 -52.063 -77.626  1.00  0.00     0.093 A 
BRANCH  12  17
HETATM   17  C15 UNK   900       5.511 -51.154 -79.847  1.00  0.00     0.295 C 
HETATM   18  O5  UNK   900       5.561 -50.662 -80.980  1.00  0.00    -0.259 OA
BRANCH  17  19
HETATM   19  O3  UNK   900       4.424 -51.076 -79.021  1.00  0.00    -0.322 OA
HETATM   20  C21 UNK   900       3.539 -49.970 -79.225  1.00  0.00     0.213 C 
ENDBRANCH  17  19
ENDBRANCH  12  17
BRANCH  16  21
HETATM   21  O1  UNK   900       9.170 -51.536 -76.625  1.00  0.00    -0.358 OA
HETATM   22  H11 UNK   900       9.368 -50.607 -76.832  1.00  0.00     0.217 HD
ENDBRANCH  16  21
ENDBRANCH   9  11
ENDBRANCH   1   7
BRANCH   2  23
HETATM   23  N2  UNK   900       7.713 -48.370 -74.501  1.00  0.00    -0.322 N 
HETATM   24  C14 UNK   900       7.367 -48.871 -73.240  1.00  0.00     0.257 C 
HETATM   25  O4  UNK   900       6.300 -48.721 -72.654  1.00  0.00    -0.267 OA
HETATM   26  H4  UNK   900       8.647 -48.570 -74.841  1.00  0.00     0.169 HD
BRANCH  24  27
HETATM   27  C16 UNK   900       8.413 -49.688 -72.572  1.00  0.00     0.049 A 
HETATM   28  C17 UNK   900       9.611 -49.119 -72.153  1.00  0.00     0.020 A 
HETATM   29  C19 UNK   900      10.570 -49.909 -71.532  1.00  0.00     0.020 A 
HETATM   30  C20 UNK   900      10.288 -51.254 -71.356  1.00  0.00     0.116 A 
HETATM   31  N3  UNK   900       9.138 -51.844 -71.750  1.00  0.00    -0.272 NA
HETATM   32  C18 UNK   900       8.227 -51.044 -72.349  1.00  0.00     0.133 A 
ENDBRANCH  24  27
ENDBRANCH   2  23
TORSDOF 7
ENDMDL
MODEL 8
REMARK VINA RESULT:      -6.7     12.658     15.084
REMARK  7 active torsions:
REMARK  status: ('A' for Active; 'I' for Inactive)
REMARK    1  A    between atoms: O1_1  and  C7_15 
REMARK    2  A    between atoms: O3_3  and  C15_23 
REMARK    3  A    between atoms: N1_6  and  C3_11 
REMARK       I    between atoms: N1_6  and  C4_12 
REMARK    4  A    between atoms: N2_7  and  C2_10 
REMARK       I    between atoms: N2_7  and  C14_22 
REMARK    5  A    between atoms: C1_9  and  C4_12 
REMARK    6  A    between atoms: C5_13  and  C15_23 
REMARK    7  A    between atoms: C14_22  and  C16_24 
ROOT
HETATM    1  C1  UNK   900      34.990 -34.239 -58.503  1.00  0.00     0.059 A 
HETATM    2  C2  UNK   900      36.041 -33.781 -59.299  1.00  0.00     0.050 A 
HETATM    3  C6  UNK   900      34.121 -33.329 -57.902  1.00  0.00     0.019 A 
HETATM    4  C8  UNK   900      36.222 -32.411 -59.493  1.00  0.00     0.030 A 
HETATM    5  C10 UNK   900      34.303 -31.959 -58.096  1.00  0.00     0.001 A 
HETATM    6  C11 UNK   900      35.353 -31.500 -58.892  1.00  0.00     0.002 A 
ENDROOT
BRANCH   1   7
HETATM    7  C4  UNK   900      34.773 -35.663 -58.279  1.00  0.00     0.258 C 
HETATM    8  O2  UNK   900      34.487 -36.385 -59.246  1.00  0.00    -0.267 OA
HETATM    9  N1  UNK   900      34.888 -36.095 -56.952  1.00  0.00    -0.320 N 
HETATM   10  H1  UNK   900      34.952 -35.362 -56.249  1.00  0.00     0.169 HD
BRANCH   9  11
HETATM   11  C3  UNK   900      34.709 -37.402 -56.434  1.00  0.00     0.085 A 
HETATM   12  C5  UNK   900      35.763 -38.316 -56.450  1.00  0.00     0.069 A 
HETATM   13  C9  UNK   900      35.579 -39.600 -55.938  1.00  0.00     0.020 A 
HETATM   14  C13 UNK   900      34.343 -39.970 -55.409  1.00  0.00     0.004 A 
HETATM   15  C12 UNK   900      33.290 -39.056 -55.392  1.00  0.00     0.039 A 
HETATM   16  C7  UNK   900      33.473 -37.772 -55.904  1.00  0.00     0.093 A 
BRANCH  12  17
HETATM   17  C15 UNK   900      37.068 -37.963 -56.995  1.00  0.00     0.295 C 
HETATM   18  O5  UNK   900      37.715 -36.964 -56.662  1.00  0.00    -0.259 OA
BRANCH  17  19
HETATM   19  O3  UNK   900      37.486 -38.877 -57.923  1.00  0.00    -0.322 OA
HETATM   20  C21 UNK   900      36.897 -38.788 -59.224  1.00  0.00     0.213 C 
ENDBRANCH  17  19
ENDBRANCH  12  17
BRANCH  16  21
HETATM   21  O1  UNK   900      32.429 -36.895 -55.877  1.00  0.00    -0.358 OA
HETATM   22  H11 UNK   900      32.683 -36.083 -56.348  1.00  0.00     0.217 HD
ENDBRANCH  16  21
ENDBRANCH   9  11
ENDBRANCH   1   7
BRANCH   2  23
HETATM   23  N2  UNK   900      36.925 -34.674 -59.908  1.00  0.00    -0.322 N 
HETATM   24  C14 UNK   900      38.226 -35.003 -59.510  1.00  0.00     0.257 C 
HETATM   25  O4  UNK   900      38.836 -34.560 -58.541  1.00  0.00    -0.267 OA
HETATM   26  H4  UNK   900      36.568 -35.120 -60.746  1.00  0.00     0.169 HD
BRANCH  24  27
HETATM   27  C16 UNK   900      38.912 -36.017 -60.352  1.00  0.00     0.049 A 
HETATM   28  C17 UNK   900      38.453 -36.318 -61.630  1.00  0.00     0.020 A 
HETATM   29  C19 UNK   900      39.114 -37.273 -62.393  1.00  0.00     0.020 A 
HETATM   30  C20 UNK   900      40.221 -37.895 -61.838  1.00  0.00     0.116 A 
HETATM   31  N3  UNK   900      40.697 -37.630 -60.601  1.00  0.00    -0.272 NA
HETATM   32  C18 UNK   900      40.029 -36.695 -59.888  1.00  0.00     0.133 A 
ENDBRANCH  24  27
ENDBRANCH   2  23
TORSDOF 7
ENDMDL
MODEL 9
REMARK VINA RESULT:      -6.7     26.852     30.143
REMARK  7 active torsions:
REMARK  status: ('A' for Active; 'I' for Inactive)
REMARK    1  A    between atoms: O1_1  and  C7_15 
REMARK    2  A    between atoms: O3_3  and  C15_23 
REMARK    3  A    between atoms: N1_6  and  C3_11 
REMARK       I    between atoms: N1_6  and  C4_12 
REMARK    4  A    between atoms: N2_7  and  C2_10 
REMARK       I    between atoms: N2_7  and  C14_22 
REMARK    5  A    between atoms: C1_9  and  C4_12 
REMARK    6  A    between atoms: C5_13  and  C15_23 
REMARK    7  A    between atoms: C14_22  and  C16_24 
ROOT
HETATM    1  C1  UNK   900       9.150 -50.978 -73.593  1.00  0.00     0.059 A 
HETATM    2  C2  UNK   900       8.960 -49.623 -73.323  1.00  0.00     0.050 A 
HETATM    3  C6  UNK   900       9.945 -51.753 -72.748  1.00  0.00     0.019 A 
HETATM    4  C8  UNK   900       9.566 -49.041 -72.209  1.00  0.00     0.030 A 
HETATM    5  C10 UNK   900      10.552 -51.171 -71.634  1.00  0.00     0.001 A 
HETATM    6  C11 UNK   900      10.362 -49.815 -71.365  1.00  0.00     0.002 A 
ENDROOT
BRANCH   1   7
HETATM    7  C4  UNK   900       8.532 -51.616 -74.749  1.00  0.00     0.258 C 
HETATM    8  O2  UNK   900       7.338 -51.943 -74.685  1.00  0.00    -0.267 OA
HETATM    9  N1  UNK   900       9.373 -51.831 -75.848  1.00  0.00    -0.320 N 
HETATM   10  H1  UNK   900      10.366 -51.671 -75.687  1.00  0.00     0.169 HD
BRANCH   9  11
HETATM   11  C3  UNK   900       9.063 -52.445 -77.087  1.00  0.00     0.085 A 
HETATM   12  C5  UNK   900       9.612 -53.684 -77.416  1.00  0.00     0.069 A 
HETATM   13  C9  UNK   900       9.302 -54.281 -78.637  1.00  0.00     0.020 A 
HETATM   14  C13 UNK   900       8.441 -53.640 -79.528  1.00  0.00     0.004 A 
HETATM   15  C12 UNK   900       7.892 -52.401 -79.199  1.00  0.00     0.039 A 
HETATM   16  C7  UNK   900       8.202 -51.803 -77.978  1.00  0.00     0.093 A 
BRANCH  12  17
HETATM   17  C15 UNK   900      10.514 -54.382 -76.508  1.00  0.00     0.295 C 
HETATM   18  O5  UNK   900      10.245 -54.658 -75.334  1.00  0.00    -0.259 OA
BRANCH  17  19
HETATM   19  O3  UNK   900      11.697 -54.693 -77.120  1.00  0.00    -0.322 OA
HETATM   20  C21 UNK   900      12.122 -56.057 -77.042  1.00  0.00     0.213 C 
ENDBRANCH  17  19
ENDBRANCH  12  17
BRANCH  16  21
HETATM   21  O1  UNK   900       7.654 -50.592 -77.678  1.00  0.00    -0.358 OA
HETATM   22  H11 UNK   900       6.867 -50.452 -78.232  1.00  0.00     0.217 HD
ENDBRANCH  16  21
ENDBRANCH   9  11
ENDBRANCH   1   7
BRANCH   2  23
HETATM   23  N2  UNK   900       8.170 -48.827 -74.157  1.00  0.00    -0.322 N 
HETATM   24  C14 UNK   900       6.867 -48.369 -73.928  1.00  0.00     0.257 C 
HETATM   25  O4  UNK   900       6.172 -48.587 -72.940  1.00  0.00    -0.267 OA
HETATM   26  H4  UNK   900       8.605 -48.571 -75.037  1.00  0.00     0.169 HD
BRANCH  24  27
HETATM   27  C16 UNK   900       6.297 -47.510 -74.998  1.00  0.00     0.049 A 
HETATM   28  C17 UNK   900       5.059 -47.795 -75.563  1.00  0.00     0.020 A 
HETATM   29  C19 UNK   900       4.552 -46.973 -76.563  1.00  0.00     0.020 A 
HETATM   30  C20 UNK   900       5.317 -45.889 -76.961  1.00  0.00     0.116 A 
HETATM   31  N3  UNK   900       6.523 -45.580 -76.436  1.00  0.00    -0.272 NA
HETATM   32  C18 UNK   900       6.983 -46.400 -75.465  1.00  0.00     0.133 A 
ENDBRANCH  24  27
ENDBRANCH   2  23
TORSDOF 7
ENDMDL
