MODEL 1
REMARK VINA RESULT:      -8.0      0.000      0.000
REMARK  8 active torsions:
REMARK  status: ('A' for Active; 'I' for Inactive)
REMARK    1  A    between atoms: O4_4  and  C13_20 
REMARK    2  A    between atoms: O7_7  and  C26_33 
REMARK    3  A    between atoms: C1_8  and  C8_15 
REMARK    4  A    between atoms: C3_10  and  C11_18 
REMARK    5  A    between atoms: C8_15  and  C12_19 
REMARK    6  A    between atoms: C12_19  and  C15_22 
REMARK    7  A    between atoms: C15_22  and  C17_24 
REMARK    8  A    between atoms: C18_25  and  C21_28 
ROOT
HETATM    1  O1  UNK   900      32.227 -48.122 -59.609  1.00  0.00    -0.379 OA
HETATM    2  O2  UNK   900      33.487 -52.201 -59.491  1.00  0.00    -0.297 OA
HETATM    3  C1  UNK   900      33.686 -49.970 -60.435  1.00  0.00     0.043 C 
HETATM    4  C2  UNK   900      31.243 -48.694 -60.480  1.00  0.00     0.065 C 
HETATM    5  C3  UNK   900      31.861 -48.852 -61.899  1.00  0.00     0.063 C 
HETATM    6  C4  UNK   900      33.261 -49.512 -61.840  1.00  0.00     0.032 C 
HETATM    7  C5  UNK   900      33.405 -48.889 -59.383  1.00  0.00     0.186 C 
HETATM    8  C6  UNK   900      30.711 -50.030 -59.890  1.00  0.00     0.046 C 
HETATM    9  C7  UNK   900      32.927 -51.240 -60.024  1.00  0.00     0.137 C 
HETATM   10  C9  UNK   900      31.446 -51.299 -60.302  1.00  0.00     0.082 C 
HETATM   11  C10 UNK   900      30.064 -47.701 -60.441  1.00  0.00     0.047 C 
ENDROOT
BRANCH   5  12
HETATM   12  C11 UNK   900      31.964 -47.571 -62.693  1.00  0.00     0.058 A 
HETATM   13  C13 UNK   900      32.808 -46.551 -62.448  1.00  0.00     0.081 A 
HETATM   14  C16 UNK   900      32.821 -45.373 -63.270  1.00  0.00     0.075 A 
HETATM   15  C18 UNK   900      31.974 -45.276 -64.302  1.00  0.00     0.092 A 
HETATM   16  O3  UNK   900      31.073 -46.322 -64.603  1.00  0.00    -0.274 OA
HETATM   17  C14 UNK   900      31.026 -47.463 -63.850  1.00  0.00     0.297 A 
HETATM   18  O5  UNK   900      30.238 -48.367 -64.120  1.00  0.00    -0.259 OA
BRANCH  13  19
HETATM   19  O4  UNK   900      33.727 -46.506 -61.426  1.00  0.00    -0.360 OA
HETATM   20  H19 UNK   900      33.329 -46.832 -60.601  1.00  0.00     0.217 HD
ENDBRANCH  13  19
BRANCH  15  21
HETATM   21  C21 UNK   900      31.906 -44.119 -65.213  1.00  0.00    -0.002 A 
HETATM   22  C22 UNK   900      31.113 -44.180 -66.360  1.00  0.00     0.017 A 
HETATM   23  C24 UNK   900      31.049 -43.086 -67.223  1.00  0.00     0.037 A 
HETATM   24  C26 UNK   900      31.778 -41.931 -66.940  1.00  0.00     0.068 A 
HETATM   25  C25 UNK   900      32.571 -41.870 -65.793  1.00  0.00     0.037 A 
HETATM   26  C23 UNK   900      32.635 -42.963 -64.931  1.00  0.00     0.017 A 
BRANCH  24  27
HETATM   27  O7  UNK   900      31.717 -40.865 -67.783  1.00  0.00    -0.356 OA
HETATM   28  C27 UNK   900      30.466 -40.185 -67.880  1.00  0.00     0.210 C 
ENDBRANCH  24  27
ENDBRANCH  15  21
ENDBRANCH   5  12
BRANCH   3  29
HETATM   29  C8  UNK   900      35.193 -50.295 -60.442  1.00  0.00     0.027 C 
BRANCH  29  30
HETATM   30  C12 UNK   900      35.833 -49.864 -61.750  1.00  0.00     0.080 C 
BRANCH  30  31
HETATM   31  C15 UNK   900      36.854 -48.755 -61.543  1.00  0.00     0.130 C 
HETATM   32  O6  UNK   900      36.521 -47.603 -61.263  1.00  0.00    -0.298 OA
BRANCH  31  33
HETATM   33  C17 UNK   900      38.322 -49.157 -61.671  1.00  0.00     0.047 C 
HETATM   34  C19 UNK   900      39.160 -47.999 -62.207  1.00  0.00     0.017 C 
HETATM   35  C20 UNK   900      38.845 -49.630 -60.320  1.00  0.00     0.017 C 
ENDBRANCH  31  33
ENDBRANCH  30  31
ENDBRANCH  29  30
ENDBRANCH   3  29
TORSDOF 8
ENDMDL
MODEL 2
REMARK VINA RESULT:      -7.6      2.264      9.075
REMARK  8 active torsions:
REMARK  status: ('A' for Active; 'I' for Inactive)
REMARK    1  A    between atoms: O4_4  and  C13_20 
REMARK    2  A    between atoms: O7_7  and  C26_33 
REMARK    3  A    between atoms: C1_8  and  C8_15 
REMARK    4  A    between atoms: C3_10  and  C11_18 
REMARK    5  A    between atoms: C8_15  and  C12_19 
REMARK    6  A    between atoms: C12_19  and  C15_22 
REMARK    7  A    between atoms: C15_22  and  C17_24 
REMARK    8  A    between atoms: C18_25  and  C21_28 
ROOT
HETATM    1  O1  UNK   900      32.477 -44.235 -62.812  1.00  0.00    -0.379 OA
HETATM    2  O2  UNK   900      33.390 -42.467 -66.592  1.00  0.00    -0.297 OA
HETATM    3  C1  UNK   900      32.838 -44.433 -65.273  1.00  0.00     0.043 C 
HETATM    4  C2  UNK   900      33.908 -44.257 -62.739  1.00  0.00     0.065 C 
HETATM    5  C3  UNK   900      34.432 -45.494 -63.524  1.00  0.00     0.063 C 
HETATM    6  C4  UNK   900      33.766 -45.606 -64.918  1.00  0.00     0.032 C 
HETATM    7  C5  UNK   900      31.905 -44.082 -64.107  1.00  0.00     0.186 C 
HETATM    8  C6  UNK   900      34.496 -42.912 -63.252  1.00  0.00     0.046 C 
HETATM    9  C7  UNK   900      33.655 -43.179 -65.620  1.00  0.00     0.137 C 
HETATM   10  C9  UNK   900      34.825 -42.832 -64.736  1.00  0.00     0.082 C 
HETATM   11  C10 UNK   900      34.220 -44.321 -61.231  1.00  0.00     0.047 C 
ENDROOT
BRANCH   5  12
HETATM   12  C11 UNK   900      34.275 -46.813 -62.806  1.00  0.00     0.058 A 
HETATM   13  C13 UNK   900      33.112 -47.417 -62.500  1.00  0.00     0.081 A 
HETATM   14  C16 UNK   900      33.077 -48.678 -61.811  1.00  0.00     0.075 A 
HETATM   15  C18 UNK   900      34.224 -49.270 -61.456  1.00  0.00     0.092 A 
HETATM   16  O3  UNK   900      35.471 -48.678 -61.760  1.00  0.00    -0.274 OA
HETATM   17  C14 UNK   900      35.553 -47.481 -62.417  1.00  0.00     0.297 A 
HETATM   18  O5  UNK   900      36.642 -46.975 -62.676  1.00  0.00    -0.259 OA
BRANCH  13  19
HETATM   19  O4  UNK   900      31.860 -46.929 -62.794  1.00  0.00    -0.360 OA
HETATM   20  H19 UNK   900      31.176 -47.539 -62.469  1.00  0.00     0.217 HD
ENDBRANCH  13  19
BRANCH  15  21
HETATM   21  C21 UNK   900      34.307 -50.563 -60.754  1.00  0.00    -0.002 A 
HETATM   22  C22 UNK   900      35.435 -51.370 -60.910  1.00  0.00     0.017 A 
HETATM   23  C24 UNK   900      35.514 -52.594 -60.246  1.00  0.00     0.037 A 
HETATM   24  C26 UNK   900      34.465 -53.013 -59.427  1.00  0.00     0.068 A 
HETATM   25  C25 UNK   900      33.337 -52.206 -59.271  1.00  0.00     0.037 A 
HETATM   26  C23 UNK   900      33.259 -50.982 -59.934  1.00  0.00     0.017 A 
BRANCH  24  27
HETATM   27  O7  UNK   900      34.542 -54.208 -58.781  1.00  0.00    -0.356 OA
HETATM   28  C27 UNK   900      35.309 -55.236 -59.406  1.00  0.00     0.210 C 
ENDBRANCH  24  27
ENDBRANCH  15  21
ENDBRANCH   5  12
BRANCH   3  29
HETATM   29  C8  UNK   900      31.994 -44.810 -66.507  1.00  0.00     0.027 C 
BRANCH  29  30
HETATM   30  C12 UNK   900      31.968 -46.316 -66.705  1.00  0.00     0.080 C 
BRANCH  30  31
HETATM   31  C15 UNK   900      30.669 -46.931 -66.203  1.00  0.00     0.130 C 
HETATM   32  O6  UNK   900      30.642 -47.721 -65.259  1.00  0.00    -0.298 OA
BRANCH  31  33
HETATM   33  C17 UNK   900      29.394 -46.488 -66.916  1.00  0.00     0.047 C 
HETATM   34  C19 UNK   900      29.090 -47.397 -68.105  1.00  0.00     0.017 C 
HETATM   35  C20 UNK   900      28.231 -46.472 -65.931  1.00  0.00     0.017 C 
ENDBRANCH  31  33
ENDBRANCH  30  31
ENDBRANCH  29  30
ENDBRANCH   3  29
TORSDOF 8
ENDMDL
MODEL 3
REMARK VINA RESULT:      -7.3     10.798     14.789
REMARK  8 active torsions:
REMARK  status: ('A' for Active; 'I' for Inactive)
REMARK    1  A    between atoms: O4_4  and  C13_20 
REMARK    2  A    between atoms: O7_7  and  C26_33 
REMARK    3  A    between atoms: C1_8  and  C8_15 
REMARK    4  A    between atoms: C3_10  and  C11_18 
REMARK    5  A    between atoms: C8_15  and  C12_19 
REMARK    6  A    between atoms: C12_19  and  C15_22 
REMARK    7  A    between atoms: C15_22  and  C17_24 
REMARK    8  A    between atoms: C18_25  and  C21_28 
ROOT
HETATM    1  O1  UNK   900      34.815 -35.416 -59.597  1.00  0.00    -0.379 OA
HETATM    2  O2  UNK   900      35.391 -31.199 -59.245  1.00  0.00    -0.297 OA
HETATM    3  C1  UNK   900      36.288 -33.455 -59.138  1.00  0.00     0.043 C 
HETATM    4  C2  UNK   900      34.384 -35.235 -58.241  1.00  0.00     0.065 C 
HETATM    5  C3  UNK   900      35.636 -35.185 -57.319  1.00  0.00     0.063 C 
HETATM    6  C4  UNK   900      36.717 -34.228 -57.880  1.00  0.00     0.032 C 
HETATM    7  C5  UNK   900      35.610 -34.378 -60.159  1.00  0.00     0.186 C 
HETATM    8  C6  UNK   900      33.485 -33.972 -58.124  1.00  0.00     0.046 C 
HETATM    9  C7  UNK   900      35.299 -32.337 -58.778  1.00  0.00     0.137 C 
HETATM   10  C9  UNK   900      34.191 -32.660 -57.810  1.00  0.00     0.082 C 
HETATM   11  C10 UNK   900      33.472 -36.445 -57.958  1.00  0.00     0.047 C 
ENDROOT
BRANCH   5  12
HETATM   12  C11 UNK   900      36.275 -36.526 -57.043  1.00  0.00     0.058 A 
HETATM   13  C13 UNK   900      36.991 -37.259 -57.915  1.00  0.00     0.081 A 
HETATM   14  C16 UNK   900      37.555 -38.527 -57.545  1.00  0.00     0.075 A 
HETATM   15  C18 UNK   900      37.364 -39.002 -56.309  1.00  0.00     0.092 A 
HETATM   16  O3  UNK   900      36.623 -38.267 -55.355  1.00  0.00    -0.274 OA
HETATM   17  C14 UNK   900      36.069 -37.054 -55.661  1.00  0.00     0.297 A 
HETATM   18  O5  UNK   900      35.427 -36.424 -54.825  1.00  0.00    -0.259 OA
BRANCH  13  19
HETATM   19  O4  UNK   900      37.266 -36.905 -59.215  1.00  0.00    -0.360 OA
HETATM   20  H19 UNK   900      37.479 -35.958 -59.268  1.00  0.00     0.217 HD
ENDBRANCH  13  19
BRANCH  15  21
HETATM   21  C21 UNK   900      37.900 -40.285 -55.820  1.00  0.00    -0.002 A 
HETATM   22  C22 UNK   900      37.375 -40.867 -54.665  1.00  0.00     0.017 A 
HETATM   23  C24 UNK   900      37.883 -42.080 -54.202  1.00  0.00     0.037 A 
HETATM   24  C26 UNK   900      38.918 -42.712 -54.892  1.00  0.00     0.068 A 
HETATM   25  C25 UNK   900      39.443 -42.131 -56.046  1.00  0.00     0.037 A 
HETATM   26  C23 UNK   900      38.935 -40.918 -56.510  1.00  0.00     0.017 A 
BRANCH  24  27
HETATM   27  O7  UNK   900      39.414 -43.895 -54.439  1.00  0.00    -0.356 OA
HETATM   28  C27 UNK   900      40.747 -44.231 -54.825  1.00  0.00     0.210 C 
ENDBRANCH  24  27
ENDBRANCH  15  21
ENDBRANCH   5  12
BRANCH   3  29
HETATM   29  C8  UNK   900      37.529 -32.807 -59.782  1.00  0.00     0.027 C 
BRANCH  29  30
HETATM   30  C12 UNK   900      37.804 -33.406 -61.151  1.00  0.00     0.080 C 
BRANCH  30  31
HETATM   31  C15 UNK   900      39.045 -34.286 -61.145  1.00  0.00     0.130 C 
HETATM   32  O6  UNK   900      38.977 -35.513 -61.213  1.00  0.00    -0.298 OA
BRANCH  31  33
HETATM   33  C17 UNK   900      40.387 -33.559 -61.082  1.00  0.00     0.047 C 
HETATM   34  C19 UNK   900      41.535 -34.501 -61.438  1.00  0.00     0.017 C 
HETATM   35  C20 UNK   900      40.363 -32.353 -62.013  1.00  0.00     0.017 C 
ENDBRANCH  31  33
ENDBRANCH  30  31
ENDBRANCH  29  30
ENDBRANCH   3  29
TORSDOF 8
ENDMDL
MODEL 4
REMARK VINA RESULT:      -7.2     21.864     24.051
REMARK  8 active torsions:
REMARK  status: ('A' for Active; 'I' for Inactive)
REMARK    1  A    between atoms: O4_4  and  C13_20 
REMARK    2  A    between atoms: O7_7  and  C26_33 
REMARK    3  A    between atoms: C1_8  and  C8_15 
REMARK    4  A    between atoms: C3_10  and  C11_18 
REMARK    5  A    between atoms: C8_15  and  C12_19 
REMARK    6  A    between atoms: C12_19  and  C15_22 
REMARK    7  A    between atoms: C15_22  and  C17_24 
REMARK    8  A    between atoms: C18_25  and  C21_28 
ROOT
HETATM    1  O1  UNK   900      22.447 -29.874 -47.024  1.00  0.00    -0.379 OA
HETATM    2  O2  UNK   900      20.002 -33.375 -46.900  1.00  0.00    -0.297 OA
HETATM    3  C1  UNK   900      21.683 -32.028 -48.027  1.00  0.00     0.043 C 
HETATM    4  C2  UNK   900      21.247 -29.340 -47.599  1.00  0.00     0.065 C 
HETATM    5  C3  UNK   900      21.200 -29.720 -49.107  1.00  0.00     0.063 C 
HETATM    6  C4  UNK   900      21.512 -31.221 -49.325  1.00  0.00     0.032 C 
HETATM    7  C5  UNK   900      22.578 -31.292 -47.022  1.00  0.00     0.186 C 
HETATM    8  C6  UNK   900      20.003 -29.829 -46.804  1.00  0.00     0.046 C 
HETATM    9  C7  UNK   900      20.322 -32.275 -47.358  1.00  0.00     0.137 C 
HETATM   10  C9  UNK   900      19.355 -31.122 -47.280  1.00  0.00     0.082 C 
HETATM   11  C10 UNK   900      21.345 -27.820 -47.361  1.00  0.00     0.047 C 
ENDROOT
BRANCH   5  12
HETATM   12  C11 UNK   900      22.108 -28.904 -49.995  1.00  0.00     0.058 A 
HETATM   13  C13 UNK   900      23.439 -29.056 -50.125  1.00  0.00     0.081 A 
HETATM   14  C16 UNK   900      24.210 -28.219 -51.003  1.00  0.00     0.075 A 
HETATM   15  C18 UNK   900      23.600 -27.259 -51.707  1.00  0.00     0.092 A 
HETATM   16  O3  UNK   900      22.203 -27.063 -51.609  1.00  0.00    -0.274 OA
HETATM   17  C14 UNK   900      21.428 -27.836 -50.789  1.00  0.00     0.297 A 
HETATM   18  O5  UNK   900      20.215 -27.657 -50.712  1.00  0.00    -0.259 OA
BRANCH  13  19
HETATM   19  O4  UNK   900      24.201 -29.992 -49.465  1.00  0.00    -0.360 OA
HETATM   20  H19 UNK   900      23.628 -30.650 -49.036  1.00  0.00     0.217 HD
ENDBRANCH  13  19
BRANCH  15  21
HETATM   21  C21 UNK   900      24.288 -26.349 -52.641  1.00  0.00    -0.002 A 
HETATM   22  C22 UNK   900      25.522 -26.711 -53.185  1.00  0.00     0.017 A 
HETATM   23  C24 UNK   900      26.174 -25.849 -54.067  1.00  0.00     0.037 A 
HETATM   24  C26 UNK   900      25.594 -24.626 -54.404  1.00  0.00     0.068 A 
HETATM   25  C25 UNK   900      24.361 -24.265 -53.860  1.00  0.00     0.037 A 
HETATM   26  C23 UNK   900      23.709 -25.126 -52.978  1.00  0.00     0.017 A 
BRANCH  24  27
HETATM   27  O7  UNK   900      26.231 -23.785 -55.264  1.00  0.00    -0.356 OA
HETATM   28  C27 UNK   900      25.780 -22.432 -55.303  1.00  0.00     0.210 C 
ENDBRANCH  24  27
ENDBRANCH  15  21
ENDBRANCH   5  12
BRANCH   3  29
HETATM   29  C8  UNK   900      22.308 -33.397 -48.359  1.00  0.00     0.027 C 
BRANCH  29  30
HETATM   30  C12 UNK   900      23.142 -33.318 -49.626  1.00  0.00     0.080 C 
BRANCH  30  31
HETATM   31  C15 UNK   900      24.632 -33.277 -49.322  1.00  0.00     0.130 C 
HETATM   32  O6  UNK   900      25.119 -32.452 -48.549  1.00  0.00    -0.298 OA
BRANCH  31  33
HETATM   33  C17 UNK   900      25.489 -34.340 -50.007  1.00  0.00     0.047 C 
HETATM   34  C19 UNK   900      26.561 -34.871 -49.058  1.00  0.00     0.017 C 
HETATM   35  C20 UNK   900      24.601 -35.470 -50.514  1.00  0.00     0.017 C 
ENDBRANCH  31  33
ENDBRANCH  30  31
ENDBRANCH  29  30
ENDBRANCH   3  29
TORSDOF 8
ENDMDL
MODEL 5
REMARK VINA RESULT:      -7.0     34.358     37.948
REMARK  8 active torsions:
REMARK  status: ('A' for Active; 'I' for Inactive)
REMARK    1  A    between atoms: O4_4  and  C13_20 
REMARK    2  A    between atoms: O7_7  and  C26_33 
REMARK    3  A    between atoms: C1_8  and  C8_15 
REMARK    4  A    between atoms: C3_10  and  C11_18 
REMARK    5  A    between atoms: C8_15  and  C12_19 
REMARK    6  A    between atoms: C12_19  and  C15_22 
REMARK    7  A    between atoms: C15_22  and  C17_24 
REMARK    8  A    between atoms: C18_25  and  C21_28 
ROOT
HETATM    1  O1  UNK   900       6.559 -66.712 -52.147  1.00  0.00    -0.379 OA
HETATM    2  O2  UNK   900       8.831 -66.704 -48.530  1.00  0.00    -0.297 OA
HETATM    3  C1  UNK   900       7.838 -67.926 -50.381  1.00  0.00     0.043 C 
HETATM    4  C2  UNK   900       5.485 -66.744 -51.198  1.00  0.00     0.065 C 
HETATM    5  C3  UNK   900       5.282 -68.211 -50.719  1.00  0.00     0.063 C 
HETATM    6  C4  UNK   900       6.627 -68.873 -50.328  1.00  0.00     0.032 C 
HETATM    7  C5  UNK   900       7.845 -67.095 -51.670  1.00  0.00     0.186 C 
HETATM    8  C6  UNK   900       5.763 -65.752 -50.033  1.00  0.00     0.046 C 
HETATM    9  C7  UNK   900       7.821 -66.956 -49.191  1.00  0.00     0.137 C 
HETATM   10  C9  UNK   900       6.510 -66.307 -48.827  1.00  0.00     0.082 C 
HETATM   11  C10 UNK   900       4.271 -66.184 -51.965  1.00  0.00     0.047 C 
ENDROOT
BRANCH   5  12
HETATM   12  C11 UNK   900       4.571 -69.107 -51.705  1.00  0.00     0.058 A 
HETATM   13  C13 UNK   900       5.065 -69.546 -52.878  1.00  0.00     0.081 A 
HETATM   14  C16 UNK   900       4.298 -70.399 -53.744  1.00  0.00     0.075 A 
HETATM   15  C18 UNK   900       3.061 -70.764 -53.388  1.00  0.00     0.092 A 
HETATM   16  O3  UNK   900       2.501 -70.333 -52.164  1.00  0.00    -0.274 OA
HETATM   17  C14 UNK   900       3.193 -69.523 -51.306  1.00  0.00     0.297 A 
HETATM   18  O5  UNK   900       2.697 -69.154 -50.245  1.00  0.00    -0.259 OA
BRANCH  13  19
HETATM   19  O4  UNK   900       6.312 -69.251 -53.378  1.00  0.00    -0.360 OA
HETATM   20  H19 UNK   900       6.714 -68.527 -52.870  1.00  0.00     0.217 HD
ENDBRANCH  13  19
BRANCH  15  21
HETATM   21  C21 UNK   900       2.189 -71.639 -54.193  1.00  0.00    -0.002 A 
HETATM   22  C22 UNK   900       0.978 -71.153 -54.688  1.00  0.00     0.017 A 
HETATM   23  C24 UNK   900       0.153 -71.980 -55.449  1.00  0.00     0.037 A 
HETATM   24  C26 UNK   900       0.538 -73.295 -55.715  1.00  0.00     0.068 A 
HETATM   25  C25 UNK   900       1.749 -73.781 -55.221  1.00  0.00     0.037 A 
HETATM   26  C23 UNK   900       2.574 -72.953 -54.460  1.00  0.00     0.017 A 
BRANCH  24  27
HETATM   27  O7  UNK   900      -0.268 -74.102 -56.456  1.00  0.00    -0.356 OA
HETATM   28  C27 UNK   900      -1.138 -73.468 -57.394  1.00  0.00     0.210 C 
ENDBRANCH  24  27
ENDBRANCH  15  21
ENDBRANCH   5  12
BRANCH   3  29
HETATM   29  C8  UNK   900       9.134 -68.757 -50.302  1.00  0.00     0.027 C 
BRANCH  29  30
HETATM   30  C12 UNK   900       8.824 -70.244 -50.289  1.00  0.00     0.080 C 
BRANCH  30  31
HETATM   31  C15 UNK   900       9.274 -70.905 -48.994  1.00  0.00     0.130 C 
HETATM   32  O6  UNK   900       9.267 -72.127 -48.847  1.00  0.00    -0.298 OA
BRANCH  31  33
HETATM   33  C17 UNK   900       9.768 -69.967 -47.894  1.00  0.00     0.047 C 
HETATM   34  C19 UNK   900       8.770 -69.908 -46.740  1.00  0.00     0.017 C 
HETATM   35  C20 UNK   900      11.139 -70.420 -47.408  1.00  0.00     0.017 C 
ENDBRANCH  31  33
ENDBRANCH  30  31
ENDBRANCH  29  30
ENDBRANCH   3  29
TORSDOF 8
ENDMDL
MODEL 6
REMARK VINA RESULT:      -6.7     11.677     15.658
REMARK  8 active torsions:
REMARK  status: ('A' for Active; 'I' for Inactive)
REMARK    1  A    between atoms: O4_4  and  C13_20 
REMARK    2  A    between atoms: O7_7  and  C26_33 
REMARK    3  A    between atoms: C1_8  and  C8_15 
REMARK    4  A    between atoms: C3_10  and  C11_18 
REMARK    5  A    between atoms: C8_15  and  C12_19 
REMARK    6  A    between atoms: C12_19  and  C15_22 
REMARK    7  A    between atoms: C15_22  and  C17_24 
REMARK    8  A    between atoms: C18_25  and  C21_28 
ROOT
HETATM    1  O1  UNK   900      34.871 -35.915 -59.254  1.00  0.00    -0.379 OA
HETATM    2  O2  UNK   900      35.069 -31.650 -59.378  1.00  0.00    -0.297 OA
HETATM    3  C1  UNK   900      36.173 -33.794 -59.073  1.00  0.00     0.043 C 
HETATM    4  C2  UNK   900      34.474 -35.625 -57.907  1.00  0.00     0.065 C 
HETATM    5  C3  UNK   900      35.748 -35.364 -57.054  1.00  0.00     0.063 C 
HETATM    6  C4  UNK   900      36.715 -34.383 -57.761  1.00  0.00     0.032 C 
HETATM    7  C5  UNK   900      35.546 -34.878 -59.958  1.00  0.00     0.186 C 
HETATM    8  C6  UNK   900      33.467 -34.440 -57.884  1.00  0.00     0.046 C 
HETATM    9  C7  UNK   900      35.099 -32.733 -58.789  1.00  0.00     0.137 C 
HETATM   10  C9  UNK   900      34.060 -33.044 -57.742  1.00  0.00     0.082 C 
HETATM   11  C10 UNK   900      33.687 -36.872 -57.457  1.00  0.00     0.047 C 
ENDROOT
BRANCH   5  12
HETATM   12  C11 UNK   900      36.516 -36.606 -56.666  1.00  0.00     0.058 A 
HETATM   13  C13 UNK   900      37.245 -37.378 -57.492  1.00  0.00     0.081 A 
HETATM   14  C16 UNK   900      37.938 -38.543 -57.015  1.00  0.00     0.075 A 
HETATM   15  C18 UNK   900      37.858 -38.879 -55.723  1.00  0.00     0.092 A 
HETATM   16  O3  UNK   900      37.109 -38.096 -54.814  1.00  0.00    -0.274 OA
HETATM   17  C14 UNK   900      36.435 -36.978 -55.221  1.00  0.00     0.297 A 
HETATM   18  O5  UNK   900      35.786 -36.305 -54.424  1.00  0.00    -0.259 OA
BRANCH  13  19
HETATM   19  O4  UNK   900      37.416 -37.163 -58.840  1.00  0.00    -0.360 OA
HETATM   20  H19 UNK   900      36.577 -36.886 -59.245  1.00  0.00     0.217 HD
ENDBRANCH  13  19
BRANCH  15  21
HETATM   21  C21 UNK   900      38.532 -40.046 -55.124  1.00  0.00    -0.002 A 
HETATM   22  C22 UNK   900      39.447 -39.867 -54.086  1.00  0.00     0.017 A 
HETATM   23  C24 UNK   900      40.085 -40.971 -53.521  1.00  0.00     0.037 A 
HETATM   24  C26 UNK   900      39.810 -42.254 -53.994  1.00  0.00     0.068 A 
HETATM   25  C25 UNK   900      38.895 -42.433 -55.032  1.00  0.00     0.037 A 
HETATM   26  C23 UNK   900      38.256 -41.329 -55.598  1.00  0.00     0.017 A 
BRANCH  24  27
HETATM   27  O7  UNK   900      40.433 -43.330 -53.443  1.00  0.00    -0.356 OA
HETATM   28  C27 UNK   900      40.879 -43.203 -52.093  1.00  0.00     0.210 C 
ENDBRANCH  24  27
ENDBRANCH  15  21
ENDBRANCH   5  12
BRANCH   3  29
HETATM   29  C8  UNK   900      37.325 -33.114 -59.838  1.00  0.00     0.027 C 
BRANCH  29  30
HETATM   30  C12 UNK   900      38.455 -32.740 -58.894  1.00  0.00     0.080 C 
BRANCH  30  31
HETATM   31  C15 UNK   900      38.512 -31.240 -58.644  1.00  0.00     0.130 C 
HETATM   32  O6  UNK   900      37.996 -30.721 -57.654  1.00  0.00    -0.298 OA
BRANCH  31  33
HETATM   33  C17 UNK   900      39.273 -30.412 -59.678  1.00  0.00     0.047 C 
HETATM   34  C19 UNK   900      38.470 -29.181 -60.091  1.00  0.00     0.017 C 
HETATM   35  C20 UNK   900      40.633 -30.013 -59.117  1.00  0.00     0.017 C 
ENDBRANCH  31  33
ENDBRANCH  30  31
ENDBRANCH  29  30
ENDBRANCH   3  29
TORSDOF 8
ENDMDL
MODEL 7
REMARK VINA RESULT:      -6.6     34.883     39.413
REMARK  8 active torsions:
REMARK  status: ('A' for Active; 'I' for Inactive)
REMARK    1  A    between atoms: O4_4  and  C13_20 
REMARK    2  A    between atoms: O7_7  and  C26_33 
REMARK    3  A    between atoms: C1_8  and  C8_15 
REMARK    4  A    between atoms: C3_10  and  C11_18 
REMARK    5  A    between atoms: C8_15  and  C12_19 
REMARK    6  A    between atoms: C12_19  and  C15_22 
REMARK    7  A    between atoms: C15_22  and  C17_24 
REMARK    8  A    between atoms: C18_25  and  C21_28 
ROOT
HETATM    1  O1  UNK   900       5.903 -68.784 -50.077  1.00  0.00    -0.379 OA
HETATM    2  O2  UNK   900       6.912 -64.854 -51.410  1.00  0.00    -0.297 OA
HETATM    3  C1  UNK   900       5.339 -66.705 -51.337  1.00  0.00     0.043 C 
HETATM    4  C2  UNK   900       6.660 -69.123 -51.246  1.00  0.00     0.065 C 
HETATM    5  C3  UNK   900       5.742 -68.991 -52.494  1.00  0.00     0.063 C 
HETATM    6  C4  UNK   900       4.962 -67.653 -52.488  1.00  0.00     0.032 C 
HETATM    7  C5  UNK   900       5.412 -67.450 -49.998  1.00  0.00     0.186 C 
HETATM    8  C6  UNK   900       7.942 -68.247 -51.332  1.00  0.00     0.046 C 
HETATM    9  C7  UNK   900       6.707 -66.056 -51.594  1.00  0.00     0.137 C 
HETATM   10  C9  UNK   900       7.822 -66.936 -52.098  1.00  0.00     0.082 C 
HETATM   11  C10 UNK   900       7.137 -70.567 -50.995  1.00  0.00     0.047 C 
ENDROOT
BRANCH   5  12
HETATM   12  C11 UNK   900       4.759 -70.122 -52.681  1.00  0.00     0.058 A 
HETATM   13  C13 UNK   900       3.764 -70.457 -51.839  1.00  0.00     0.081 A 
HETATM   14  C16 UNK   900       2.883 -71.558 -52.115  1.00  0.00     0.075 A 
HETATM   15  C18 UNK   900       3.051 -72.277 -53.231  1.00  0.00     0.092 A 
HETATM   16  O3  UNK   900       4.079 -71.961 -54.150  1.00  0.00    -0.274 OA
HETATM   17  C14 UNK   900       4.939 -70.921 -53.930  1.00  0.00     0.297 A 
HETATM   18  O5  UNK   900       5.829 -70.656 -54.735  1.00  0.00    -0.259 OA
BRANCH  13  19
HETATM   19  O4  UNK   900       3.473 -69.817 -50.657  1.00  0.00    -0.360 OA
HETATM   20  H19 UNK   900       3.397 -70.462 -49.934  1.00  0.00     0.217 HD
ENDBRANCH  13  19
BRANCH  15  21
HETATM   21  C21 UNK   900       2.205 -73.420 -53.618  1.00  0.00    -0.002 A 
HETATM   22  C22 UNK   900       1.808 -74.351 -52.657  1.00  0.00     0.017 A 
HETATM   23  C24 UNK   900       1.008 -75.433 -53.023  1.00  0.00     0.037 A 
HETATM   24  C26 UNK   900       0.605 -75.586 -54.350  1.00  0.00     0.068 A 
HETATM   25  C25 UNK   900       1.002 -74.655 -55.311  1.00  0.00     0.037 A 
HETATM   26  C23 UNK   900       1.802 -73.573 -54.945  1.00  0.00     0.017 A 
BRANCH  24  27
HETATM   27  O7  UNK   900      -0.174 -76.643 -54.707  1.00  0.00    -0.356 OA
HETATM   28  C27 UNK   900      -0.660 -77.476 -53.655  1.00  0.00     0.210 C 
ENDBRANCH  24  27
ENDBRANCH  15  21
ENDBRANCH   5  12
BRANCH   3  29
HETATM   29  C8  UNK   900       4.288 -65.582 -51.240  1.00  0.00     0.027 C 
BRANCH  29  30
HETATM   30  C12 UNK   900       3.093 -65.881 -52.129  1.00  0.00     0.080 C 
BRANCH  30  31
HETATM   31  C15 UNK   900       1.780 -65.781 -51.366  1.00  0.00     0.130 C 
HETATM   32  O6  UNK   900       1.509 -64.814 -50.653  1.00  0.00    -0.298 OA
BRANCH  31  33
HETATM   33  C17 UNK   900       0.799 -66.936 -51.558  1.00  0.00     0.047 C 
HETATM   34  C19 UNK   900       1.219 -67.819 -52.731  1.00  0.00     0.017 C 
HETATM   35  C20 UNK   900       0.701 -67.748 -50.272  1.00  0.00     0.017 C 
ENDBRANCH  31  33
ENDBRANCH  30  31
ENDBRANCH  29  30
ENDBRANCH   3  29
TORSDOF 8
ENDMDL
MODEL 8
REMARK VINA RESULT:      -6.4     33.677     37.700
REMARK  8 active torsions:
REMARK  status: ('A' for Active; 'I' for Inactive)
REMARK    1  A    between atoms: O4_4  and  C13_20 
REMARK    2  A    between atoms: O7_7  and  C26_33 
REMARK    3  A    between atoms: C1_8  and  C8_15 
REMARK    4  A    between atoms: C3_10  and  C11_18 
REMARK    5  A    between atoms: C8_15  and  C12_19 
REMARK    6  A    between atoms: C12_19  and  C15_22 
REMARK    7  A    between atoms: C15_22  and  C17_24 
REMARK    8  A    between atoms: C18_25  and  C21_28 
ROOT
HETATM    1  O1  UNK   900       6.715 -69.099 -46.926  1.00  0.00    -0.379 OA
HETATM    2  O2  UNK   900       8.994 -72.075 -48.973  1.00  0.00    -0.297 OA
HETATM    3  C1  UNK   900       7.729 -70.000 -49.020  1.00  0.00     0.043 C 
HETATM    4  C2  UNK   900       5.675 -70.051 -47.183  1.00  0.00     0.065 C 
HETATM    5  C3  UNK   900       5.168 -69.860 -48.641  1.00  0.00     0.063 C 
HETATM    6  C4  UNK   900       6.343 -69.769 -49.645  1.00  0.00     0.032 C 
HETATM    7  C5  UNK   900       7.895 -69.213 -47.715  1.00  0.00     0.186 C 
HETATM    8  C6  UNK   900       6.181 -71.493 -46.894  1.00  0.00     0.046 C 
HETATM    9  C7  UNK   900       7.942 -71.489 -48.707  1.00  0.00     0.137 C 
HETATM   10  C9  UNK   900       6.809 -72.243 -48.061  1.00  0.00     0.082 C 
HETATM   11  C10 UNK   900       4.599 -69.748 -46.122  1.00  0.00     0.047 C 
ENDROOT
BRANCH   5  12
HETATM   12  C11 UNK   900       4.263 -68.668 -48.846  1.00  0.00     0.058 A 
HETATM   13  C13 UNK   900       4.630 -67.374 -48.788  1.00  0.00     0.081 A 
HETATM   14  C16 UNK   900       3.683 -66.315 -49.000  1.00  0.00     0.075 A 
HETATM   15  C18 UNK   900       2.403 -66.611 -49.254  1.00  0.00     0.092 A 
HETATM   16  O3  UNK   900       1.970 -67.955 -49.330  1.00  0.00    -0.274 OA
HETATM   17  C14 UNK   900       2.836 -68.997 -49.139  1.00  0.00     0.297 A 
HETATM   18  O5  UNK   900       2.449 -70.160 -49.206  1.00  0.00    -0.259 OA
BRANCH  13  19
HETATM   19  O4  UNK   900       5.902 -66.918 -48.533  1.00  0.00    -0.360 OA
HETATM   20  H19 UNK   900       6.000 -66.709 -47.589  1.00  0.00     0.217 HD
ENDBRANCH  13  19
BRANCH  15  21
HETATM   21  C21 UNK   900       1.350 -65.607 -49.493  1.00  0.00    -0.002 A 
HETATM   22  C22 UNK   900       0.411 -65.809 -50.506  1.00  0.00     0.017 A 
HETATM   23  C24 UNK   900      -0.585 -64.859 -50.733  1.00  0.00     0.037 A 
HETATM   24  C26 UNK   900      -0.642 -63.707 -49.948  1.00  0.00     0.068 A 
HETATM   25  C25 UNK   900       0.297 -63.505 -48.935  1.00  0.00     0.037 A 
HETATM   26  C23 UNK   900       1.293 -64.455 -48.709  1.00  0.00     0.017 A 
BRANCH  24  27
HETATM   27  O7  UNK   900      -1.612 -62.780 -50.170  1.00  0.00    -0.356 OA
HETATM   28  C27 UNK   900      -2.093 -62.651 -51.508  1.00  0.00     0.210 C 
ENDBRANCH  24  27
ENDBRANCH  15  21
ENDBRANCH   5  12
BRANCH   3  29
HETATM   29  C8  UNK   900       8.816 -69.563 -50.022  1.00  0.00     0.027 C 
BRANCH  29  30
HETATM   30  C12 UNK   900       9.439 -68.242 -49.602  1.00  0.00     0.080 C 
BRANCH  30  31
HETATM   31  C15 UNK   900       8.796 -67.061 -50.314  1.00  0.00     0.130 C 
HETATM   32  O6  UNK   900       8.756 -65.938 -49.812  1.00  0.00    -0.298 OA
BRANCH  31  33
HETATM   33  C17 UNK   900       8.228 -67.340 -51.704  1.00  0.00     0.047 C 
HETATM   34  C19 UNK   900       6.826 -66.752 -51.849  1.00  0.00     0.017 C 
HETATM   35  C20 UNK   900       9.166 -66.778 -52.765  1.00  0.00     0.017 C 
ENDBRANCH  31  33
ENDBRANCH  30  31
ENDBRANCH  29  30
ENDBRANCH   3  29
TORSDOF 8
ENDMDL
MODEL 9
REMARK VINA RESULT:      -6.3     11.186     12.649
REMARK  8 active torsions:
REMARK  status: ('A' for Active; 'I' for Inactive)
REMARK    1  A    between atoms: O4_4  and  C13_20 
REMARK    2  A    between atoms: O7_7  and  C26_33 
REMARK    3  A    between atoms: C1_8  and  C8_15 
REMARK    4  A    between atoms: C3_10  and  C11_18 
REMARK    5  A    between atoms: C8_15  and  C12_19 
REMARK    6  A    between atoms: C12_19  and  C15_22 
REMARK    7  A    between atoms: C15_22  and  C17_24 
REMARK    8  A    between atoms: C18_25  and  C21_28 
ROOT
HETATM    1  O1  UNK   900      36.469 -38.171 -54.937  1.00  0.00    -0.379 OA
HETATM    2  O2  UNK   900      37.704 -42.133 -55.948  1.00  0.00    -0.297 OA
HETATM    3  C1  UNK   900      37.930 -39.729 -56.228  1.00  0.00     0.043 C 
HETATM    4  C2  UNK   900      35.495 -38.467 -55.947  1.00  0.00     0.065 C 
HETATM    5  C3  UNK   900      36.134 -38.229 -57.345  1.00  0.00     0.063 C 
HETATM    6  C4  UNK   900      37.529 -38.893 -57.454  1.00  0.00     0.032 C 
HETATM    7  C5  UNK   900      37.639 -38.983 -54.920  1.00  0.00     0.186 C 
HETATM    8  C6  UNK   900      34.947 -39.910 -55.761  1.00  0.00     0.046 C 
HETATM    9  C7  UNK   900      37.157 -41.056 -56.199  1.00  0.00     0.137 C 
HETATM   10  C9  UNK   900      35.681 -41.020 -56.501  1.00  0.00     0.082 C 
HETATM   11  C10 UNK   900      34.322 -37.514 -55.646  1.00  0.00     0.047 C 
ENDROOT
BRANCH   5  12
HETATM   12  C11 UNK   900      36.256 -36.778 -57.747  1.00  0.00     0.058 A 
HETATM   13  C13 UNK   900      37.085 -35.870 -57.201  1.00  0.00     0.081 A 
HETATM   14  C16 UNK   900      37.119 -34.510 -57.662  1.00  0.00     0.075 A 
HETATM   15  C18 UNK   900      36.307 -34.126 -58.654  1.00  0.00     0.092 A 
HETATM   16  O3  UNK   900      35.422 -35.044 -59.264  1.00  0.00    -0.274 OA
HETATM   17  C14 UNK   900      35.356 -36.350 -58.860  1.00  0.00     0.297 A 
HETATM   18  O5  UNK   900      34.583 -37.139 -59.397  1.00  0.00    -0.259 OA
BRANCH  13  19
HETATM   19  O4  UNK   900      37.969 -36.114 -56.176  1.00  0.00    -0.360 OA
HETATM   20  H19 UNK   900      37.490 -36.390 -55.377  1.00  0.00     0.217 HD
ENDBRANCH  13  19
BRANCH  15  21
HETATM   21  C21 UNK   900      36.263 -32.761 -59.210  1.00  0.00    -0.002 A 
HETATM   22  C22 UNK   900      35.506 -31.774 -58.576  1.00  0.00     0.017 A 
HETATM   23  C24 UNK   900      35.463 -30.484 -59.103  1.00  0.00     0.037 A 
HETATM   24  C26 UNK   900      36.175 -30.179 -60.263  1.00  0.00     0.068 A 
HETATM   25  C25 UNK   900      36.931 -31.166 -60.896  1.00  0.00     0.037 A 
HETATM   26  C23 UNK   900      36.975 -32.457 -60.370  1.00  0.00     0.017 A 
BRANCH  24  27
HETATM   27  O7  UNK   900      36.131 -28.920 -60.777  1.00  0.00    -0.356 OA
HETATM   28  C27 UNK   900      37.163 -28.019 -60.377  1.00  0.00     0.210 C 
ENDBRANCH  24  27
ENDBRANCH  15  21
ENDBRANCH   5  12
BRANCH   3  29
HETATM   29  C8  UNK   900      39.435 -40.054 -56.306  1.00  0.00     0.027 C 
BRANCH  29  30
HETATM   30  C12 UNK   900      40.091 -39.911 -54.944  1.00  0.00     0.080 C 
BRANCH  30  31
HETATM   31  C15 UNK   900      40.524 -41.257 -54.380  1.00  0.00     0.130 C 
HETATM   32  O6  UNK   900      40.971 -42.153 -55.095  1.00  0.00    -0.298 OA
BRANCH  31  33
HETATM   33  C17 UNK   900      40.402 -41.424 -52.866  1.00  0.00     0.047 C 
HETATM   34  C19 UNK   900      40.680 -42.867 -52.452  1.00  0.00     0.017 C 
HETATM   35  C20 UNK   900      41.353 -40.462 -52.164  1.00  0.00     0.017 C 
ENDBRANCH  31  33
ENDBRANCH  30  31
ENDBRANCH  29  30
ENDBRANCH   3  29
TORSDOF 8
ENDMDL
