MODEL 1
REMARK VINA RESULT:      -5.9      0.000      0.000
REMARK  1 active torsions:
REMARK  status: ('A' for Active; 'I' for Inactive)
REMARK    1  A    between atoms: O1_1  and  C5_8 
ROOT
HETATM    1  O2  UNK   900      25.680 -22.111 -71.997  1.00  0.00    -0.298 OA
HETATM    2  O3  UNK   900      26.186 -20.674 -78.979  1.00  0.00    -0.292 OA
HETATM    3  C1  UNK   900      24.390 -22.834 -75.247  1.00  0.00    -0.003 C 
HETATM    4  C2  UNK   900      25.866 -23.348 -75.335  1.00  0.00     0.039 C 
HETATM    5  C3  UNK   900      24.293 -22.095 -76.541  1.00  0.00    -0.057 A 
HETATM    6  C4  UNK   900      24.388 -21.869 -74.035  1.00  0.00     0.064 C 
HETATM    7  C5  UNK   900      26.619 -22.362 -76.267  1.00  0.00     0.160 C 
HETATM    8  C6  UNK   900      25.492 -21.856 -77.061  1.00  0.00     0.021 A 
HETATM    9  C7  UNK   900      26.389 -23.395 -73.902  1.00  0.00     0.087 C 
HETATM   10  C8  UNK   900      23.130 -21.537 -77.269  1.00  0.00     0.052 A 
HETATM   11  C9  UNK   900      23.785 -20.851 -78.501  1.00  0.00     0.021 A 
HETATM   12  C10 UNK   900      25.502 -22.422 -73.168  1.00  0.00     0.132 C 
HETATM   13  C11 UNK   900      23.413 -24.007 -75.154  1.00  0.00     0.021 C 
HETATM   14  C12 UNK   900      25.280 -21.079 -78.268  1.00  0.00     0.166 A 
HETATM   15  C13 UNK   900      23.074 -21.748 -73.281  1.00  0.00     0.019 C 
HETATM   16  C14 UNK   900      23.363 -21.520 -79.808  1.00  0.00     0.023 C 
HETATM   17  C15 UNK   900      23.487 -19.352 -78.533  1.00  0.00     0.023 C 
ENDROOT
BRANCH   7  18
HETATM   18  O1  UNK   900      27.547 -23.049 -77.085  1.00  0.00    -0.390 OA
HETATM   19  H20 UNK   900      27.805 -23.874 -76.638  1.00  0.00     0.210 HD
ENDBRANCH   7  18
TORSDOF 1
ENDMDL
MODEL 2
REMARK VINA RESULT:      -5.5     25.367     28.148
REMARK  1 active torsions:
REMARK  status: ('A' for Active; 'I' for Inactive)
REMARK    1  A    between atoms: O1_1  and  C5_8 
ROOT
HETATM    1  O2  UNK   900      39.575 -41.646 -56.329  1.00  0.00    -0.298 OA
HETATM    2  O3  UNK   900      35.372 -36.718 -59.350  1.00  0.00    -0.292 OA
HETATM    3  C1  UNK   900      36.311 -40.200 -56.381  1.00  0.00    -0.003 C 
HETATM    4  C2  UNK   900      36.430 -40.843 -57.803  1.00  0.00     0.039 C 
HETATM    5  C3  UNK   900      35.745 -38.867 -56.744  1.00  0.00    -0.057 A 
HETATM    6  C4  UNK   900      37.774 -40.084 -55.885  1.00  0.00     0.064 C 
HETATM    7  C5  UNK   900      36.555 -39.668 -58.808  1.00  0.00     0.160 C 
HETATM    8  C6  UNK   900      35.888 -38.608 -58.040  1.00  0.00     0.021 A 
HETATM    9  C7  UNK   900      37.641 -41.770 -57.753  1.00  0.00     0.087 C 
HETATM   10  C8  UNK   900      35.145 -37.795 -55.916  1.00  0.00     0.052 A 
HETATM   11  C9  UNK   900      34.841 -36.679 -56.955  1.00  0.00     0.021 A 
HETATM   12  C10 UNK   900      38.463 -41.220 -56.616  1.00  0.00     0.132 C 
HETATM   13  C11 UNK   900      35.378 -41.023 -55.490  1.00  0.00     0.021 C 
HETATM   14  C12 UNK   900      35.371 -37.271 -58.262  1.00  0.00     0.166 A 
HETATM   15  C13 UNK   900      37.975 -40.158 -54.380  1.00  0.00     0.019 C 
HETATM   16  C14 UNK   900      33.339 -36.423 -57.081  1.00  0.00     0.023 C 
HETATM   17  C15 UNK   900      35.590 -35.388 -56.627  1.00  0.00     0.023 C 
ENDROOT
BRANCH   7  18
HETATM   18  O1  UNK   900      35.850 -39.947 -60.002  1.00  0.00    -0.390 OA
HETATM   19  H20 UNK   900      36.055 -39.255 -60.655  1.00  0.00     0.210 HD
ENDBRANCH   7  18
TORSDOF 1
ENDMDL
MODEL 3
REMARK VINA RESULT:      -5.5      2.098      3.370
REMARK  1 active torsions:
REMARK  status: ('A' for Active; 'I' for Inactive)
REMARK    1  A    between atoms: O1_1  and  C5_8 
ROOT
HETATM    1  O2  UNK   900      25.101 -17.874 -72.146  1.00  0.00    -0.298 OA
HETATM    2  O3  UNK   900      25.903 -23.317 -76.708  1.00  0.00    -0.292 OA
HETATM    3  C1  UNK   900      24.275 -21.280 -72.832  1.00  0.00    -0.003 C 
HETATM    4  C2  UNK   900      25.827 -21.330 -72.636  1.00  0.00     0.039 C 
HETATM    5  C3  UNK   900      24.139 -22.113 -74.064  1.00  0.00    -0.057 A 
HETATM    6  C4  UNK   900      23.968 -19.787 -73.115  1.00  0.00     0.064 C 
HETATM    7  C5  UNK   900      26.438 -21.590 -74.039  1.00  0.00     0.160 C 
HETATM    8  C6  UNK   900      25.305 -22.263 -74.686  1.00  0.00     0.021 A 
HETATM    9  C7  UNK   900      26.222 -19.997 -72.007  1.00  0.00     0.087 C 
HETATM   10  C8  UNK   900      22.954 -22.711 -74.722  1.00  0.00     0.052 A 
HETATM   11  C9  UNK   900      23.558 -23.384 -75.986  1.00  0.00     0.021 A 
HETATM   12  C10 UNK   900      25.093 -19.074 -72.390  1.00  0.00     0.132 C 
HETATM   13  C11 UNK   900      23.556 -21.880 -71.623  1.00  0.00     0.021 C 
HETATM   14  C12 UNK   900      25.042 -23.022 -75.894  1.00  0.00     0.166 A 
HETATM   15  C13 UNK   900      22.597 -19.295 -72.683  1.00  0.00     0.019 C 
HETATM   16  C14 UNK   900      23.398 -24.903 -75.945  1.00  0.00     0.023 C 
HETATM   17  C15 UNK   900      22.961 -22.805 -77.269  1.00  0.00     0.023 C 
ENDROOT
BRANCH   7  18
HETATM   18  O1  UNK   900      27.555 -22.454 -73.950  1.00  0.00    -0.390 OA
HETATM   19  H20 UNK   900      28.311 -21.952 -73.600  1.00  0.00     0.210 HD
ENDBRANCH   7  18
TORSDOF 1
ENDMDL
MODEL 4
REMARK VINA RESULT:      -5.2     52.032     54.186
REMARK  1 active torsions:
REMARK  status: ('A' for Active; 'I' for Inactive)
REMARK    1  A    between atoms: O1_1  and  C5_8 
ROOT
HETATM    1  O2  UNK   900      21.421 -61.911 -35.723  1.00  0.00    -0.298 OA
HETATM    2  O3  UNK   900      27.977 -60.424 -38.149  1.00  0.00    -0.292 OA
HETATM    3  C1  UNK   900      23.365 -59.761 -37.808  1.00  0.00    -0.003 C 
HETATM    4  C2  UNK   900      23.519 -61.154 -38.504  1.00  0.00     0.039 C 
HETATM    5  C3  UNK   900      24.786 -59.300 -37.828  1.00  0.00    -0.057 A 
HETATM    6  C4  UNK   900      22.894 -60.096 -36.370  1.00  0.00     0.064 C 
HETATM    7  C5  UNK   900      24.981 -61.611 -38.255  1.00  0.00     0.160 C 
HETATM    8  C6  UNK   900      25.624 -60.304 -38.068  1.00  0.00     0.021 A 
HETATM    9  C7  UNK   900      22.456 -62.059 -37.888  1.00  0.00     0.087 C 
HETATM   10  C8  UNK   900      25.395 -57.977 -37.558  1.00  0.00     0.052 A 
HETATM   11  C9  UNK   900      26.917 -58.257 -37.702  1.00  0.00     0.021 A 
HETATM   12  C10 UNK   900      22.164 -61.411 -36.559  1.00  0.00     0.132 C 
HETATM   13  C11 UNK   900      22.431 -58.853 -38.610  1.00  0.00     0.021 C 
HETATM   14  C12 UNK   900      26.966 -59.757 -37.995  1.00  0.00     0.166 A 
HETATM   15  C13 UNK   900      22.030 -59.047 -35.690  1.00  0.00     0.019 C 
HETATM   16  C14 UNK   900      27.521 -57.486 -38.875  1.00  0.00     0.023 C 
HETATM   17  C15 UNK   900      27.668 -57.956 -36.405  1.00  0.00     0.023 C 
ENDROOT
BRANCH   7  18
HETATM   18  O1  UNK   900      25.503 -62.273 -39.391  1.00  0.00    -0.390 OA
HETATM   19  H20 UNK   900      26.417 -62.547 -39.200  1.00  0.00     0.210 HD
ENDBRANCH   7  18
TORSDOF 1
ENDMDL
MODEL 5
REMARK VINA RESULT:      -5.0     37.659     39.723
REMARK  1 active torsions:
REMARK  status: ('A' for Active; 'I' for Inactive)
REMARK    1  A    between atoms: O1_1  and  C5_8 
ROOT
HETATM    1  O2  UNK   900       8.663 -57.834 -77.033  1.00  0.00    -0.298 OA
HETATM    2  O3  UNK   900      12.957 -59.902 -71.708  1.00  0.00    -0.292 OA
HETATM    3  C1  UNK   900       9.287 -57.652 -73.522  1.00  0.00    -0.003 C 
HETATM    4  C2  UNK   900      10.538 -56.939 -74.136  1.00  0.00     0.039 C 
HETATM    5  C3  UNK   900       9.955 -58.529 -72.515  1.00  0.00    -0.057 A 
HETATM    6  C4  UNK   900       8.696 -58.475 -74.695  1.00  0.00     0.064 C 
HETATM    7  C5  UNK   900      11.740 -57.895 -73.918  1.00  0.00     0.160 C 
HETATM    8  C6  UNK   900      11.259 -58.641 -72.748  1.00  0.00     0.021 A 
HETATM    9  C7  UNK   900      10.199 -56.665 -75.599  1.00  0.00     0.087 C 
HETATM   10  C8  UNK   900       9.411 -59.325 -71.390  1.00  0.00     0.052 A 
HETATM   11  C9  UNK   900      10.673 -60.032 -70.820  1.00  0.00     0.021 A 
HETATM   12  C10 UNK   900       9.125 -57.676 -75.910  1.00  0.00     0.132 C 
HETATM   13  C11 UNK   900       8.337 -56.633 -72.891  1.00  0.00     0.021 C 
HETATM   14  C12 UNK   900      11.785 -59.564 -71.760  1.00  0.00     0.166 A 
HETATM   15  C13 UNK   900       7.195 -58.708 -74.655  1.00  0.00     0.019 C 
HETATM   16  C14 UNK   900      10.979 -59.573 -69.395  1.00  0.00     0.023 C 
HETATM   17  C15 UNK   900      10.542 -61.554 -70.888  1.00  0.00     0.023 C 
ENDROOT
BRANCH   7  18
HETATM   18  O1  UNK   900      12.913 -57.168 -73.606  1.00  0.00    -0.390 OA
HETATM   19  H20 UNK   900      12.702 -56.218 -73.612  1.00  0.00     0.210 HD
ENDBRANCH   7  18
TORSDOF 1
ENDMDL
MODEL 6
REMARK VINA RESULT:      -4.8     53.684     55.385
REMARK  1 active torsions:
REMARK  status: ('A' for Active; 'I' for Inactive)
REMARK    1  A    between atoms: O1_1  and  C5_8 
ROOT
HETATM    1  O2  UNK   900      19.284 -62.361 -35.110  1.00  0.00    -0.298 OA
HETATM    2  O3  UNK   900      25.187 -61.855 -39.106  1.00  0.00    -0.292 OA
HETATM    3  C1  UNK   900      21.856 -60.183 -36.290  1.00  0.00    -0.003 C 
HETATM    4  C2  UNK   900      21.106 -60.582 -37.605  1.00  0.00     0.039 C 
HETATM    5  C3  UNK   900      23.271 -60.354 -36.735  1.00  0.00    -0.057 A 
HETATM    6  C4  UNK   900      21.444 -61.270 -35.265  1.00  0.00     0.064 C 
HETATM    7  C5  UNK   900      22.062 -61.520 -38.389  1.00  0.00     0.160 C 
HETATM    8  C6  UNK   900      23.352 -61.068 -37.853  1.00  0.00     0.021 A 
HETATM    9  C7  UNK   900      19.795 -61.230 -37.169  1.00  0.00     0.087 C 
HETATM   10  C8  UNK   900      24.553 -59.941 -36.116  1.00  0.00     0.052 A 
HETATM   11  C9  UNK   900      25.614 -60.507 -37.101  1.00  0.00     0.021 A 
HETATM   12  C10 UNK   900      20.078 -61.697 -35.765  1.00  0.00     0.132 C 
HETATM   13  C11 UNK   900      21.524 -58.744 -35.892  1.00  0.00     0.021 C 
HETATM   14  C12 UNK   900      24.764 -61.227 -38.149  1.00  0.00     0.166 A 
HETATM   15  C13 UNK   900      21.418 -60.836 -33.808  1.00  0.00     0.019 C 
HETATM   16  C14 UNK   900      26.413 -59.389 -37.771  1.00  0.00     0.023 C 
HETATM   17  C15 UNK   900      26.544 -61.505 -36.411  1.00  0.00     0.023 C 
ENDROOT
BRANCH   7  18
HETATM   18  O1  UNK   900      21.979 -61.276 -39.780  1.00  0.00    -0.390 OA
HETATM   19  H20 UNK   900      22.581 -61.886 -40.240  1.00  0.00     0.210 HD
ENDBRANCH   7  18
TORSDOF 1
ENDMDL
MODEL 7
REMARK VINA RESULT:      -4.8      1.952      3.479
REMARK  1 active torsions:
REMARK  status: ('A' for Active; 'I' for Inactive)
REMARK    1  A    between atoms: O1_1  and  C5_8 
ROOT
HETATM    1  O2  UNK   900      23.010 -24.539 -74.258  1.00  0.00    -0.298 OA
HETATM    2  O3  UNK   900      26.220 -21.182 -79.690  1.00  0.00    -0.292 OA
HETATM    3  C1  UNK   900      24.702 -21.568 -75.289  1.00  0.00    -0.003 C 
HETATM    4  C2  UNK   900      23.402 -21.549 -76.160  1.00  0.00     0.039 C 
HETATM    5  C3  UNK   900      25.720 -21.231 -76.329  1.00  0.00    -0.057 A 
HETATM    6  C4  UNK   900      24.832 -23.039 -74.818  1.00  0.00     0.064 C 
HETATM    7  C5  UNK   900      23.845 -21.854 -77.616  1.00  0.00     0.160 C 
HETATM    8  C6  UNK   900      25.237 -21.392 -77.557  1.00  0.00     0.021 A 
HETATM    9  C7  UNK   900      22.463 -22.586 -75.550  1.00  0.00     0.087 C 
HETATM   10  C8  UNK   900      27.144 -20.838 -76.221  1.00  0.00     0.052 A 
HETATM   11  C9  UNK   900      27.585 -20.709 -77.706  1.00  0.00     0.021 A 
HETATM   12  C10 UNK   900      23.391 -23.511 -74.804  1.00  0.00     0.132 C 
HETATM   13  C11 UNK   900      24.622 -20.526 -74.172  1.00  0.00     0.021 C 
HETATM   14  C12 UNK   900      26.324 -21.107 -78.476  1.00  0.00     0.166 A 
HETATM   15  C13 UNK   900      25.524 -23.253 -73.482  1.00  0.00     0.019 C 
HETATM   16  C14 UNK   900      27.966 -19.271 -78.056  1.00  0.00     0.023 C 
HETATM   17  C15 UNK   900      28.723 -21.674 -78.040  1.00  0.00     0.023 C 
ENDROOT
BRANCH   7  18
HETATM   18  O1  UNK   900      23.097 -21.090 -78.541  1.00  0.00    -0.390 OA
HETATM   19  H20 UNK   900      23.489 -20.201 -78.602  1.00  0.00     0.210 HD
ENDBRANCH   7  18
TORSDOF 1
ENDMDL
MODEL 8
REMARK VINA RESULT:      -4.8     39.388     41.493
REMARK  1 active torsions:
REMARK  status: ('A' for Active; 'I' for Inactive)
REMARK    1  A    between atoms: O1_1  and  C5_8 
ROOT
HETATM    1  O2  UNK   900      10.114 -60.081 -75.104  1.00  0.00    -0.298 OA
HETATM    2  O3  UNK   900      14.063 -63.206 -70.034  1.00  0.00    -0.292 OA
HETATM    3  C1  UNK   900      11.501 -59.739 -71.832  1.00  0.00    -0.003 C 
HETATM    4  C2  UNK   900      12.771 -59.812 -72.744  1.00  0.00     0.039 C 
HETATM    5  C3  UNK   900      11.904 -60.680 -70.745  1.00  0.00    -0.057 A 
HETATM    6  C4  UNK   900      10.364 -60.327 -72.705  1.00  0.00     0.064 C 
HETATM    7  C5  UNK   900      13.430 -61.190 -72.468  1.00  0.00     0.160 C 
HETATM    8  C6  UNK   900      12.933 -61.440 -71.109  1.00  0.00     0.021 A 
HETATM    9  C7  UNK   900      12.282 -59.615 -74.175  1.00  0.00     0.087 C 
HETATM   10  C8  UNK   900      11.321 -60.949 -69.410  1.00  0.00     0.052 A 
HETATM   11  C9  UNK   900      12.220 -62.091 -68.859  1.00  0.00     0.021 A 
HETATM   12  C10 UNK   900      10.829 -60.012 -74.113  1.00  0.00     0.132 C 
HETATM   13  C11 UNK   900      11.274 -58.311 -71.332  1.00  0.00     0.021 C 
HETATM   14  C12 UNK   900      13.189 -62.354 -70.013  1.00  0.00     0.166 A 
HETATM   15  C13 UNK   900       8.967 -59.797 -72.425  1.00  0.00     0.019 C 
HETATM   16  C14 UNK   900      13.002 -61.645 -67.624  1.00  0.00     0.023 C 
HETATM   17  C15 UNK   900      11.408 -63.353 -68.565  1.00  0.00     0.023 C 
ENDROOT
BRANCH   7  18
HETATM   18  O1  UNK   900      14.841 -61.085 -72.479  1.00  0.00    -0.390 OA
HETATM   19  H20 UNK   900      15.127 -60.809 -73.367  1.00  0.00     0.210 HD
ENDBRANCH   7  18
TORSDOF 1
ENDMDL
MODEL 9
REMARK VINA RESULT:      -4.7     42.459     44.739
REMARK  1 active torsions:
REMARK  status: ('A' for Active; 'I' for Inactive)
REMARK    1  A    between atoms: O1_1  and  C5_8 
ROOT
HETATM    1  O2  UNK   900      15.237 -62.008 -69.654  1.00  0.00    -0.298 OA
HETATM    2  O3  UNK   900      10.464 -66.009 -66.149  1.00  0.00    -0.292 OA
HETATM    3  C1  UNK   900      11.768 -62.730 -69.209  1.00  0.00    -0.003 C 
HETATM    4  C2  UNK   900      12.189 -62.163 -67.812  1.00  0.00     0.039 C 
HETATM    5  C3  UNK   900      10.977 -63.922 -68.781  1.00  0.00    -0.057 A 
HETATM    6  C4  UNK   900      13.104 -63.141 -69.878  1.00  0.00     0.064 C 
HETATM    7  C5  UNK   900      12.177 -63.365 -66.829  1.00  0.00     0.160 C 
HETATM    8  C6  UNK   900      11.213 -64.238 -67.511  1.00  0.00     0.021 A 
HETATM    9  C7  UNK   900      13.555 -61.514 -68.008  1.00  0.00     0.087 C 
HETATM   10  C8  UNK   900      10.069 -64.821 -69.531  1.00  0.00     0.052 A 
HETATM   11  C9  UNK   900       9.658 -65.873 -68.462  1.00  0.00     0.021 A 
HETATM   12  C10 UNK   900      14.101 -62.196 -69.236  1.00  0.00     0.132 C 
HETATM   13  C11 UNK   900      10.935 -61.706 -69.981  1.00  0.00     0.021 C 
HETATM   14  C12 UNK   900      10.453 -65.441 -67.229  1.00  0.00     0.166 A 
HETATM   15  C13 UNK   900      13.138 -63.073 -71.396  1.00  0.00     0.019 C 
HETATM   16  C14 UNK   900       8.162 -65.808 -68.156  1.00  0.00     0.023 C 
HETATM   17  C15 UNK   900      10.070 -67.285 -68.878  1.00  0.00     0.023 C 
ENDROOT
BRANCH   7  18
HETATM   18  O1  UNK   900      11.694 -62.973 -65.559  1.00  0.00    -0.390 OA
HETATM   19  H20 UNK   900      10.721 -62.979 -65.579  1.00  0.00     0.210 HD
ENDBRANCH   7  18
TORSDOF 1
ENDMDL
