MODEL 1
REMARK VINA RESULT:      -5.0      0.000      0.000
REMARK  2 active torsions:
REMARK  status: ('A' for Active; 'I' for Inactive)
REMARK    1  A    between atoms: O3_3  and  C3_7 
REMARK    2  A    between atoms: C4_8  and  C8_12 
ROOT
HETATM    1  O1  UNK   900       5.383 -69.827 -52.224  1.00  0.00    -0.317 OA
HETATM    2  O2  UNK   900       4.440 -67.610 -52.149  1.00  0.00    -0.320 OA
HETATM    3  C1  UNK   900       5.638 -68.402 -52.176  1.00  0.00     0.310 C 
HETATM    4  C2  UNK   900       6.526 -68.169 -50.978  1.00  0.00     0.047 C 
HETATM    5  C3  UNK   900       7.072 -69.458 -50.704  1.00  0.00     0.109 C 
HETATM    6  C4  UNK   900       6.572 -66.964 -50.397  1.00  0.00     0.026 C 
HETATM    7  C5  UNK   900       6.402 -70.364 -51.422  1.00  0.00     0.080 C 
HETATM    8  C6  UNK   900       5.686 -65.950 -50.932  1.00  0.00     0.048 C 
HETATM    9  C7  UNK   900       4.661 -66.299 -51.737  1.00  0.00     0.047 C 
HETATM   10  C9  UNK   900       6.564 -71.840 -51.465  1.00  0.00     0.079 C 
HETATM   11  C10 UNK   900       3.651 -65.322 -52.245  1.00  0.00     0.076 C 
ENDROOT
BRANCH   6  12
HETATM   12  C8  UNK   900       7.404 -66.656 -49.231  1.00  0.00     0.156 C 
HETATM   13  O4  UNK   900       8.544 -66.209 -49.374  1.00  0.00    -0.293 OA
HETATM   14  C11 UNK   900       6.821 -66.894 -47.860  1.00  0.00     0.097 C 
ENDBRANCH   6  12
BRANCH   5  15
HETATM   15  O3  UNK   900       8.091 -69.633 -49.824  1.00  0.00    -0.353 OA
HETATM   16  C12 UNK   900       9.357 -69.567 -50.470  1.00  0.00     0.210 C 
ENDBRANCH   5  15
TORSDOF 2
ENDMDL
MODEL 2
REMARK VINA RESULT:      -5.0      3.038      4.546
REMARK  2 active torsions:
REMARK  status: ('A' for Active; 'I' for Inactive)
REMARK    1  A    between atoms: O3_3  and  C3_7 
REMARK    2  A    between atoms: C4_8  and  C8_12 
ROOT
HETATM    1  O1  UNK   900       6.693 -66.476 -47.626  1.00  0.00    -0.317 OA
HETATM    2  O2  UNK   900       7.664 -66.114 -49.802  1.00  0.00    -0.320 OA
HETATM    3  C1  UNK   900       7.047 -67.053 -48.907  1.00  0.00     0.310 C 
HETATM    4  C2  UNK   900       7.921 -68.247 -48.609  1.00  0.00     0.047 C 
HETATM    5  C3  UNK   900       7.646 -68.536 -47.240  1.00  0.00     0.109 C 
HETATM    6  C4  UNK   900       8.764 -68.713 -49.537  1.00  0.00     0.026 C 
HETATM    7  C5  UNK   900       6.954 -67.517 -46.721  1.00  0.00     0.080 C 
HETATM    8  C6  UNK   900       8.834 -67.974 -50.782  1.00  0.00     0.048 C 
HETATM    9  C7  UNK   900       8.329 -66.726 -50.861  1.00  0.00     0.047 C 
HETATM   10  C9  UNK   900       6.460 -67.321 -45.334  1.00  0.00     0.079 C 
HETATM   11  C10 UNK   900       8.452 -65.870 -52.079  1.00  0.00     0.076 C 
ENDROOT
BRANCH   6  12
HETATM   12  C8  UNK   900       9.648 -69.863 -49.328  1.00  0.00     0.156 C 
HETATM   13  O4  UNK   900       9.329 -70.982 -49.735  1.00  0.00    -0.293 OA
HETATM   14  C11 UNK   900      10.954 -69.634 -48.610  1.00  0.00     0.097 C 
ENDBRANCH   6  12
BRANCH   5  15
HETATM   15  O3  UNK   900       8.077 -69.678 -46.647  1.00  0.00    -0.353 OA
HETATM   16  C12 UNK   900       7.113 -70.720 -46.753  1.00  0.00     0.210 C 
ENDBRANCH   5  15
TORSDOF 2
ENDMDL
MODEL 3
REMARK VINA RESULT:      -4.9      2.603      3.576
REMARK  2 active torsions:
REMARK  status: ('A' for Active; 'I' for Inactive)
REMARK    1  A    between atoms: O3_3  and  C3_7 
REMARK    2  A    between atoms: C4_8  and  C8_12 
ROOT
HETATM    1  O1  UNK   900       4.251 -66.912 -47.923  1.00  0.00    -0.317 OA
HETATM    2  O2  UNK   900       3.167 -66.415 -50.018  1.00  0.00    -0.320 OA
HETATM    3  C1  UNK   900       4.230 -67.121 -49.357  1.00  0.00     0.310 C 
HETATM    4  C2  UNK   900       5.598 -66.734 -49.863  1.00  0.00     0.047 C 
HETATM    5  C3  UNK   900       6.415 -66.772 -48.694  1.00  0.00     0.109 C 
HETATM    6  C4  UNK   900       5.769 -66.381 -51.142  1.00  0.00     0.026 C 
HETATM    7  C5  UNK   900       5.621 -66.871 -47.624  1.00  0.00     0.080 C 
HETATM    8  C6  UNK   900       4.577 -66.323 -51.965  1.00  0.00     0.048 C 
HETATM    9  C7  UNK   900       3.356 -66.308 -51.393  1.00  0.00     0.047 C 
HETATM   10  C9  UNK   900       5.981 -66.911 -46.183  1.00  0.00     0.079 C 
HETATM   11  C10 UNK   900       2.091 -66.151 -52.172  1.00  0.00     0.076 C 
ENDROOT
BRANCH   6  12
HETATM   12  C8  UNK   900       7.061 -65.990 -51.711  1.00  0.00     0.156 C 
HETATM   13  O4  UNK   900       7.393 -64.804 -51.761  1.00  0.00    -0.293 OA
HETATM   14  C11 UNK   900       7.970 -67.080 -52.224  1.00  0.00     0.097 C 
ENDBRANCH   6  12
BRANCH   5  15
HETATM   15  O3  UNK   900       7.769 -66.691 -48.762  1.00  0.00    -0.353 OA
HETATM   16  C12 UNK   900       8.374 -67.976 -48.679  1.00  0.00     0.210 C 
ENDBRANCH   5  15
TORSDOF 2
ENDMDL
MODEL 4
REMARK VINA RESULT:      -4.9      1.830      4.327
REMARK  2 active torsions:
REMARK  status: ('A' for Active; 'I' for Inactive)
REMARK    1  A    between atoms: O3_3  and  C3_7 
REMARK    2  A    between atoms: C4_8  and  C8_12 
ROOT
HETATM    1  O1  UNK   900       7.730 -71.489 -50.783  1.00  0.00    -0.317 OA
HETATM    2  O2  UNK   900       9.639 -70.593 -49.615  1.00  0.00    -0.320 OA
HETATM    3  C1  UNK   900       8.217 -70.531 -49.811  1.00  0.00     0.310 C 
HETATM    4  C2  UNK   900       7.744 -69.175 -50.277  1.00  0.00     0.047 C 
HETATM    5  C3  UNK   900       6.683 -69.477 -51.180  1.00  0.00     0.109 C 
HETATM    6  C4  UNK   900       8.381 -68.067 -49.881  1.00  0.00     0.026 C 
HETATM    7  C5  UNK   900       6.708 -70.788 -51.441  1.00  0.00     0.080 C 
HETATM    8  C6  UNK   900       9.562 -68.253 -49.061  1.00  0.00     0.048 C 
HETATM    9  C7  UNK   900      10.153 -69.463 -48.986  1.00  0.00     0.047 C 
HETATM   10  C9  UNK   900       5.838 -71.586 -52.343  1.00  0.00     0.079 C 
HETATM   11  C10 UNK   900      11.426 -69.706 -48.242  1.00  0.00     0.076 C 
ENDROOT
BRANCH   6  12
HETATM   12  C8  UNK   900       7.989 -66.715 -50.288  1.00  0.00     0.156 C 
HETATM   13  O4  UNK   900       7.364 -65.983 -49.517  1.00  0.00    -0.293 OA
HETATM   14  C11 UNK   900       8.378 -66.248 -51.669  1.00  0.00     0.097 C 
ENDBRANCH   6  12
BRANCH   5  15
HETATM   15  O3  UNK   900       5.850 -68.516 -51.656  1.00  0.00    -0.353 OA
HETATM   16  C12 UNK   900       4.706 -68.356 -50.826  1.00  0.00     0.210 C 
ENDBRANCH   5  15
TORSDOF 2
ENDMDL
MODEL 5
REMARK VINA RESULT:      -4.8      2.842      3.780
REMARK  2 active torsions:
REMARK  status: ('A' for Active; 'I' for Inactive)
REMARK    1  A    between atoms: O3_3  and  C3_7 
REMARK    2  A    between atoms: C4_8  and  C8_12 
ROOT
HETATM    1  O1  UNK   900       9.105 -70.133 -49.155  1.00  0.00    -0.317 OA
HETATM    2  O2  UNK   900       8.959 -68.554 -50.971  1.00  0.00    -0.320 OA
HETATM    3  C1  UNK   900       9.030 -68.740 -49.548  1.00  0.00     0.310 C 
HETATM    4  C2  UNK   900       7.847 -68.154 -48.817  1.00  0.00     0.047 C 
HETATM    5  C3  UNK   900       7.615 -69.076 -47.754  1.00  0.00     0.109 C 
HETATM    6  C4  UNK   900       7.240 -67.058 -49.286  1.00  0.00     0.026 C 
HETATM    7  C5  UNK   900       8.339 -70.176 -47.980  1.00  0.00     0.080 C 
HETATM    8  C6  UNK   900       7.732 -66.529 -50.542  1.00  0.00     0.048 C 
HETATM    9  C7  UNK   900       8.521 -67.284 -51.335  1.00  0.00     0.047 C 
HETATM   10  C9  UNK   900       8.420 -71.432 -47.189  1.00  0.00     0.079 C 
HETATM   11  C10 UNK   900       8.984 -66.843 -52.685  1.00  0.00     0.076 C 
ENDROOT
BRANCH   6  12
HETATM   12  C8  UNK   900       6.086 -66.429 -48.638  1.00  0.00     0.156 C 
HETATM   13  O4  UNK   900       6.244 -65.632 -47.710  1.00  0.00    -0.293 OA
HETATM   14  C11 UNK   900       4.710 -66.777 -49.146  1.00  0.00     0.097 C 
ENDBRANCH   6  12
BRANCH   5  15
HETATM   15  O3  UNK   900       6.763 -68.797 -46.735  1.00  0.00    -0.353 OA
HETATM   16  C12 UNK   900       7.448 -68.251 -45.613  1.00  0.00     0.210 C 
ENDBRANCH   5  15
TORSDOF 2
ENDMDL
MODEL 6
REMARK VINA RESULT:      -4.8      2.350      4.685
REMARK  2 active torsions:
REMARK  status: ('A' for Active; 'I' for Inactive)
REMARK    1  A    between atoms: O3_3  and  C3_7 
REMARK    2  A    between atoms: C4_8  and  C8_12 
ROOT
HETATM    1  O1  UNK   900       7.842 -66.907 -48.181  1.00  0.00    -0.317 OA
HETATM    2  O2  UNK   900       8.547 -67.049 -50.482  1.00  0.00    -0.320 OA
HETATM    3  C1  UNK   900       7.692 -66.397 -49.529  1.00  0.00     0.310 C 
HETATM    4  C2  UNK   900       6.227 -66.521 -49.870  1.00  0.00     0.047 C 
HETATM    5  C3  UNK   900       5.592 -66.653 -48.600  1.00  0.00     0.109 C 
HETATM    6  C4  UNK   900       5.834 -66.570 -51.148  1.00  0.00     0.026 C 
HETATM    7  C5  UNK   900       6.533 -66.870 -47.676  1.00  0.00     0.080 C 
HETATM    8  C6  UNK   900       6.881 -66.571 -52.151  1.00  0.00     0.048 C 
HETATM    9  C7  UNK   900       8.156 -66.836 -51.801  1.00  0.00     0.047 C 
HETATM   10  C9  UNK   900       6.385 -67.105 -46.216  1.00  0.00     0.079 C 
HETATM   11  C10 UNK   900       9.268 -66.951 -52.792  1.00  0.00     0.076 C 
ENDROOT
BRANCH   6  12
HETATM   12  C8  UNK   900       4.434 -66.692 -51.564  1.00  0.00     0.156 C 
HETATM   13  O4  UNK   900       3.878 -67.793 -51.583  1.00  0.00    -0.293 OA
HETATM   14  C11 UNK   900       3.698 -65.436 -51.958  1.00  0.00     0.097 C 
ENDBRANCH   6  12
BRANCH   5  15
HETATM   15  O3  UNK   900       4.244 -66.576 -48.459  1.00  0.00    -0.353 OA
HETATM   16  C12 UNK   900       3.676 -67.845 -48.156  1.00  0.00     0.210 C 
ENDBRANCH   5  15
TORSDOF 2
ENDMDL
MODEL 7
REMARK VINA RESULT:      -4.5     10.375     13.270
REMARK  2 active torsions:
REMARK  status: ('A' for Active; 'I' for Inactive)
REMARK    1  A    between atoms: O3_3  and  C3_7 
REMARK    2  A    between atoms: C4_8  and  C8_12 
ROOT
HETATM    1  O1  UNK   900       3.519 -61.626 -59.828  1.00  0.00    -0.317 OA
HETATM    2  O2  UNK   900       5.135 -63.396 -59.573  1.00  0.00    -0.320 OA
HETATM    3  C1  UNK   900       4.671 -62.306 -60.385  1.00  0.00     0.310 C 
HETATM    4  C2  UNK   900       4.280 -62.732 -61.779  1.00  0.00     0.047 C 
HETATM    5  C3  UNK   900       3.156 -61.909 -62.084  1.00  0.00     0.109 C 
HETATM    6  C4  UNK   900       4.919 -63.745 -62.378  1.00  0.00     0.026 C 
HETATM    7  C5  UNK   900       2.756 -61.304 -60.962  1.00  0.00     0.080 C 
HETATM    8  C6  UNK   900       5.928 -64.430 -61.596  1.00  0.00     0.048 C 
HETATM    9  C7  UNK   900       5.979 -64.266 -60.258  1.00  0.00     0.047 C 
HETATM   10  C9  UNK   900       1.615 -60.378 -60.745  1.00  0.00     0.079 C 
HETATM   11  C10 UNK   900       6.927 -65.014 -59.378  1.00  0.00     0.076 C 
ENDROOT
BRANCH   6  12
HETATM   12  C8  UNK   900       4.600 -64.222 -63.726  1.00  0.00     0.156 C 
HETATM   13  O4  UNK   900       3.823 -65.165 -63.891  1.00  0.00    -0.293 OA
HETATM   14  C11 UNK   900       5.243 -63.523 -64.898  1.00  0.00     0.097 C 
ENDBRANCH   6  12
BRANCH   5  15
HETATM   15  O3  UNK   900       2.639 -61.836 -63.337  1.00  0.00    -0.353 OA
HETATM   16  C12 UNK   900       1.425 -62.570 -63.446  1.00  0.00     0.210 C 
ENDBRANCH   5  15
TORSDOF 2
ENDMDL
MODEL 8
REMARK VINA RESULT:      -4.5      9.765     12.229
REMARK  2 active torsions:
REMARK  status: ('A' for Active; 'I' for Inactive)
REMARK    1  A    between atoms: O3_3  and  C3_7 
REMARK    2  A    between atoms: C4_8  and  C8_12 
ROOT
HETATM    1  O1  UNK   900       3.072 -67.052 -61.273  1.00  0.00    -0.317 OA
HETATM    2  O2  UNK   900       5.034 -66.050 -60.295  1.00  0.00    -0.320 OA
HETATM    3  C1  UNK   900       3.632 -65.912 -60.576  1.00  0.00     0.310 C 
HETATM    4  C2  UNK   900       3.316 -64.700 -61.419  1.00  0.00     0.047 C 
HETATM    5  C3  UNK   900       2.252 -65.141 -62.261  1.00  0.00     0.109 C 
HETATM    6  C4  UNK   900       4.056 -63.591 -61.309  1.00  0.00     0.026 C 
HETATM    7  C5  UNK   900       2.146 -66.468 -62.152  1.00  0.00     0.080 C 
HETATM    8  C6  UNK   900       5.189 -63.652 -60.408  1.00  0.00     0.048 C 
HETATM    9  C7  UNK   900       5.648 -64.843 -59.973  1.00  0.00     0.047 C 
HETATM   10  C9  UNK   900       1.220 -67.401 -62.845  1.00  0.00     0.079 C 
HETATM   11  C10 UNK   900       6.869 -64.988 -59.124  1.00  0.00     0.076 C 
ENDROOT
BRANCH   6  12
HETATM   12  C8  UNK   900       3.818 -62.375 -62.091  1.00  0.00     0.156 C 
HETATM   13  O4  UNK   900       4.163 -62.311 -63.273  1.00  0.00    -0.293 OA
HETATM   14  C11 UNK   900       3.135 -61.215 -61.411  1.00  0.00     0.097 C 
ENDBRANCH   6  12
BRANCH   5  15
HETATM   15  O3  UNK   900       1.537 -64.276 -63.025  1.00  0.00    -0.353 OA
HETATM   16  C12 UNK   900       0.393 -63.788 -62.334  1.00  0.00     0.210 C 
ENDBRANCH   5  15
TORSDOF 2
ENDMDL
MODEL 9
REMARK VINA RESULT:      -4.3     44.389     45.054
REMARK  2 active torsions:
REMARK  status: ('A' for Active; 'I' for Inactive)
REMARK    1  A    between atoms: O3_3  and  C3_7 
REMARK    2  A    between atoms: C4_8  and  C8_12 
ROOT
HETATM    1  O1  UNK   900      29.876 -48.124 -86.476  1.00  0.00    -0.317 OA
HETATM    2  O2  UNK   900      28.074 -47.981 -84.882  1.00  0.00    -0.320 OA
HETATM    3  C1  UNK   900      29.486 -48.150 -85.080  1.00  0.00     0.310 C 
HETATM    4  C2  UNK   900      30.009 -49.449 -84.517  1.00  0.00     0.047 C 
HETATM    5  C3  UNK   900      31.010 -49.847 -85.452  1.00  0.00     0.109 C 
HETATM    6  C4  UNK   900      29.452 -49.983 -83.424  1.00  0.00     0.026 C 
HETATM    7  C5  UNK   900      30.903 -49.079 -86.540  1.00  0.00     0.080 C 
HETATM    8  C6  UNK   900      28.301 -49.291 -82.877  1.00  0.00     0.048 C 
HETATM    9  C7  UNK   900      27.650 -48.368 -83.613  1.00  0.00     0.047 C 
HETATM   10  C9  UNK   900      31.687 -49.117 -87.802  1.00  0.00     0.079 C 
HETATM   11  C10 UNK   900      26.402 -47.687 -83.154  1.00  0.00     0.076 C 
ENDROOT
BRANCH   6  12
HETATM   12  C8  UNK   900      29.897 -51.239 -82.815  1.00  0.00     0.156 C 
HETATM   13  O4  UNK   900      29.521 -52.323 -83.266  1.00  0.00    -0.293 OA
HETATM   14  C11 UNK   900      30.829 -51.164 -81.632  1.00  0.00     0.097 C 
ENDBRANCH   6  12
BRANCH   5  15
HETATM   15  O3  UNK   900      31.871 -50.864 -85.193  1.00  0.00    -0.353 OA
HETATM   16  C12 UNK   900      31.578 -52.011 -85.982  1.00  0.00     0.210 C 
ENDBRANCH   5  15
TORSDOF 2
ENDMDL
