MODEL 1
REMARK VINA RESULT:      -7.1      0.000      0.000
REMARK  2 active torsions:
REMARK  status: ('A' for Active; 'I' for Inactive)
REMARK    1  A    between atoms: C2_4  and  C11_13 
REMARK    2  A    between atoms: C17_19  and  C19_21 
ROOT
HETATM    1  O2  UNK   900      19.702 -28.166 -49.648  1.00  0.00    -0.292 OA
HETATM    2  C1  UNK   900      22.266 -26.461 -51.615  1.00  0.00     0.021 C 
HETATM    3  C2  UNK   900      23.527 -27.227 -51.094  1.00  0.00     0.053 C 
HETATM    4  C3  UNK   900      22.532 -25.025 -52.197  1.00  0.00    -0.042 C 
HETATM    5  C4  UNK   900      24.631 -27.182 -52.185  1.00  0.00     0.023 C 
HETATM    6  C5  UNK   900      23.673 -25.102 -53.238  1.00  0.00     0.009 C 
HETATM    7  C6  UNK   900      24.927 -25.780 -52.707  1.00  0.00     0.002 C 
HETATM    8  C7  UNK   900      21.128 -26.503 -50.584  1.00  0.00     0.090 C 
HETATM    9  C8  UNK   900      23.122 -28.667 -50.740  1.00  0.00    -0.028 A 
HETATM   10  C9  UNK   900      22.876 -23.974 -51.122  1.00  0.00     0.015 C 
HETATM   11  C10 UNK   900      21.277 -24.508 -52.944  1.00  0.00     0.015 C 
HETATM   12  C12 UNK   900      21.820 -28.969 -50.297  1.00  0.00     0.018 A 
HETATM   13  C13 UNK   900      20.793 -27.909 -50.151  1.00  0.00     0.160 C 
HETATM   14  C14 UNK   900      24.052 -29.724 -50.789  1.00  0.00     0.010 A 
HETATM   15  C16 UNK   900      21.461 -30.283 -49.958  1.00  0.00     0.023 A 
HETATM   16  C17 UNK   900      22.395 -31.311 -50.041  1.00  0.00    -0.054 A 
HETATM   17  C18 UNK   900      23.692 -31.031 -50.452  1.00  0.00     0.008 A 
ENDROOT
BRANCH   3  18
HETATM   18  C11 UNK   900      24.102 -26.623 -49.827  1.00  0.00     0.136 C 
HETATM   19  O1  UNK   900      23.378 -26.229 -48.914  1.00  0.00    -0.297 OA
HETATM   20  C15 UNK   900      25.602 -26.531 -49.741  1.00  0.00     0.092 C 
ENDBRANCH   3  18
BRANCH  16  21
HETATM   21  C19 UNK   900      22.010 -32.706 -49.681  1.00  0.00     0.010 C 
HETATM   22  C20 UNK   900      23.163 -33.480 -49.012  1.00  0.00     0.015 C 
HETATM   23  C21 UNK   900      20.757 -32.759 -48.787  1.00  0.00     0.015 C 
ENDBRANCH  16  21
TORSDOF 2
ENDMDL
MODEL 2
REMARK VINA RESULT:      -6.7      2.038      6.466
REMARK  2 active torsions:
REMARK  status: ('A' for Active; 'I' for Inactive)
REMARK    1  A    between atoms: C2_4  and  C11_13 
REMARK    2  A    between atoms: C17_19  and  C19_21 
ROOT
HETATM    1  O2  UNK   900      20.450 -28.637 -50.601  1.00  0.00    -0.292 OA
HETATM    2  C1  UNK   900      21.413 -30.840 -47.850  1.00  0.00     0.021 C 
HETATM    3  C2  UNK   900      22.667 -31.513 -48.500  1.00  0.00     0.053 C 
HETATM    4  C3  UNK   900      20.710 -31.665 -46.710  1.00  0.00    -0.042 C 
HETATM    5  C4  UNK   900      23.629 -31.980 -47.374  1.00  0.00     0.023 C 
HETATM    6  C5  UNK   900      21.771 -32.106 -45.675  1.00  0.00     0.009 C 
HETATM    7  C6  UNK   900      22.956 -32.828 -46.299  1.00  0.00     0.002 C 
HETATM    8  C7  UNK   900      20.440 -30.329 -48.923  1.00  0.00     0.090 C 
HETATM    9  C8  UNK   900      23.334 -30.505 -49.449  1.00  0.00    -0.028 A 
HETATM   10  C9  UNK   900      19.935 -32.896 -47.222  1.00  0.00     0.015 C 
HETATM   11  C10 UNK   900      19.690 -30.775 -45.956  1.00  0.00     0.015 C 
HETATM   12  C12 UNK   900      22.579 -29.519 -50.113  1.00  0.00     0.018 A 
HETATM   13  C13 UNK   900      21.111 -29.420 -49.923  1.00  0.00     0.160 C 
HETATM   14  C14 UNK   900      24.713 -30.568 -49.735  1.00  0.00     0.010 A 
HETATM   15  C16 UNK   900      23.192 -28.612 -50.993  1.00  0.00     0.023 A 
HETATM   16  C17 UNK   900      24.560 -28.683 -51.235  1.00  0.00    -0.054 A 
HETATM   17  C18 UNK   900      25.319 -29.664 -50.610  1.00  0.00     0.008 A 
ENDROOT
BRANCH   3  18
HETATM   18  C11 UNK   900      22.317 -32.724 -49.343  1.00  0.00     0.136 C 
HETATM   19  O1  UNK   900      21.215 -32.842 -49.877  1.00  0.00    -0.297 OA
HETATM   20  C15 UNK   900      23.384 -33.774 -49.495  1.00  0.00     0.092 C 
ENDBRANCH   3  18
BRANCH  16  21
HETATM   21  C19 UNK   900      25.208 -27.718 -52.170  1.00  0.00     0.010 C 
HETATM   22  C20 UNK   900      24.426 -26.395 -52.284  1.00  0.00     0.015 C 
HETATM   23  C21 UNK   900      26.673 -27.429 -51.795  1.00  0.00     0.015 C 
ENDBRANCH  16  21
TORSDOF 2
ENDMDL
MODEL 3
REMARK VINA RESULT:      -6.7     51.245     54.634
REMARK  2 active torsions:
REMARK  status: ('A' for Active; 'I' for Inactive)
REMARK    1  A    between atoms: C2_4  and  C11_13 
REMARK    2  A    between atoms: C17_19  and  C19_21 
ROOT
HETATM    1  O2  UNK   900      11.059 -81.717 -65.426  1.00  0.00    -0.292 OA
HETATM    2  C1  UNK   900      11.342 -78.763 -63.295  1.00  0.00     0.021 C 
HETATM    3  C2  UNK   900       9.928 -78.142 -63.544  1.00  0.00     0.053 C 
HETATM    4  C3  UNK   900      12.458 -77.755 -62.833  1.00  0.00    -0.042 C 
HETATM    5  C4  UNK   900       9.531 -77.281 -62.314  1.00  0.00     0.023 C 
HETATM    6  C5  UNK   900      11.933 -76.930 -61.634  1.00  0.00     0.009 C 
HETATM    7  C6  UNK   900      10.593 -76.264 -61.903  1.00  0.00     0.002 C 
HETATM    8  C7  UNK   900      11.770 -79.653 -64.470  1.00  0.00     0.090 C 
HETATM    9  C8  UNK   900       8.926 -79.279 -63.800  1.00  0.00    -0.028 A 
HETATM   10  C9  UNK   900      12.937 -76.806 -63.950  1.00  0.00     0.015 C 
HETATM   11  C10 UNK   900      13.705 -78.528 -62.335  1.00  0.00     0.015 C 
HETATM   12  C12 UNK   900       9.333 -80.488 -64.394  1.00  0.00     0.018 A 
HETATM   13  C13 UNK   900      10.743 -80.709 -64.798  1.00  0.00     0.160 C 
HETATM   14  C14 UNK   900       7.556 -79.129 -63.506  1.00  0.00     0.010 A 
HETATM   15  C16 UNK   900       8.409 -81.516 -64.643  1.00  0.00     0.023 A 
HETATM   16  C17 UNK   900       7.067 -81.349 -64.318  1.00  0.00    -0.054 A 
HETATM   17  C18 UNK   900       6.639 -80.154 -63.754  1.00  0.00     0.008 A 
ENDROOT
BRANCH   3  18
HETATM   18  C11 UNK   900       9.882 -77.249 -64.769  1.00  0.00     0.136 C 
HETATM   19  O1  UNK   900      10.459 -77.555 -65.811  1.00  0.00    -0.297 OA
HETATM   20  C15 UNK   900       9.097 -75.972 -64.647  1.00  0.00     0.092 C 
ENDBRANCH   3  18
BRANCH  16  21
HETATM   21  C19 UNK   900       6.088 -82.443 -64.583  1.00  0.00     0.010 C 
HETATM   22  C20 UNK   900       5.084 -82.078 -65.693  1.00  0.00     0.015 C 
HETATM   23  C21 UNK   900       6.777 -83.779 -64.919  1.00  0.00     0.015 C 
ENDBRANCH  16  21
TORSDOF 2
ENDMDL
MODEL 4
REMARK VINA RESULT:      -6.4     39.258     41.075
REMARK  2 active torsions:
REMARK  status: ('A' for Active; 'I' for Inactive)
REMARK    1  A    between atoms: C2_4  and  C11_13 
REMARK    2  A    between atoms: C17_19  and  C19_21 
ROOT
HETATM    1  O2  UNK   900       9.063 -63.830 -71.695  1.00  0.00    -0.292 OA
HETATM    2  C1  UNK   900      10.989 -63.588 -68.600  1.00  0.00     0.021 C 
HETATM    3  C2  UNK   900      11.818 -62.301 -68.924  1.00  0.00     0.053 C 
HETATM    4  C3  UNK   900      11.624 -64.559 -67.537  1.00  0.00    -0.042 C 
HETATM    5  C4  UNK   900      12.214 -61.608 -67.592  1.00  0.00     0.023 C 
HETATM    6  C5  UNK   900      12.013 -63.749 -66.278  1.00  0.00     0.009 C 
HETATM    7  C6  UNK   900      12.882 -62.540 -66.585  1.00  0.00     0.002 C 
HETATM    8  C7  UNK   900      10.542 -64.297 -69.886  1.00  0.00     0.090 C 
HETATM    9  C8  UNK   900      10.975 -61.384 -69.824  1.00  0.00    -0.028 A 
HETATM   10  C9  UNK   900      12.851 -65.334 -68.060  1.00  0.00     0.015 C 
HETATM   11  C10 UNK   900      10.585 -65.616 -67.088  1.00  0.00     0.015 C 
HETATM   12  C12 UNK   900      10.025 -61.913 -70.718  1.00  0.00     0.018 A 
HETATM   13  C13 UNK   900       9.804 -63.376 -70.826  1.00  0.00     0.160 C 
HETATM   14  C14 UNK   900      11.166 -59.988 -69.832  1.00  0.00     0.010 A 
HETATM   15  C16 UNK   900       9.272 -61.071 -71.552  1.00  0.00     0.023 A 
HETATM   16  C17 UNK   900       9.464 -59.694 -71.519  1.00  0.00    -0.054 A 
HETATM   17  C18 UNK   900      10.414 -59.152 -70.662  1.00  0.00     0.008 A 
ENDROOT
BRANCH   3  18
HETATM   18  C11 UNK   900      13.092 -62.597 -69.690  1.00  0.00     0.136 C 
HETATM   19  O1  UNK   900      13.090 -63.303 -70.698  1.00  0.00    -0.297 OA
HETATM   20  C15 UNK   900      14.360 -61.986 -69.158  1.00  0.00     0.092 C 
ENDBRANCH   3  18
BRANCH  16  21
HETATM   21  C19 UNK   900       8.662 -58.802 -72.405  1.00  0.00     0.010 C 
HETATM   22  C20 UNK   900       7.390 -58.274 -71.712  1.00  0.00     0.015 C 
HETATM   23  C21 UNK   900       9.486 -57.622 -72.954  1.00  0.00     0.015 C 
ENDBRANCH  16  21
TORSDOF 2
ENDMDL
MODEL 5
REMARK VINA RESULT:      -6.4      1.741      2.922
REMARK  2 active torsions:
REMARK  status: ('A' for Active; 'I' for Inactive)
REMARK    1  A    between atoms: C2_4  and  C11_13 
REMARK    2  A    between atoms: C17_19  and  C19_21 
ROOT
HETATM    1  O2  UNK   900      20.265 -25.965 -50.580  1.00  0.00    -0.292 OA
HETATM    2  C1  UNK   900      22.280 -24.492 -53.247  1.00  0.00     0.021 C 
HETATM    3  C2  UNK   900      23.695 -24.970 -52.782  1.00  0.00     0.053 C 
HETATM    4  C3  UNK   900      22.260 -23.209 -54.158  1.00  0.00    -0.042 C 
HETATM    5  C4  UNK   900      24.630 -25.059 -54.018  1.00  0.00     0.023 C 
HETATM    6  C5  UNK   900      23.255 -23.400 -55.326  1.00  0.00     0.009 C 
HETATM    7  C6  UNK   900      24.651 -23.792 -54.869  1.00  0.00     0.002 C 
HETATM    8  C7  UNK   900      21.304 -24.418 -52.065  1.00  0.00     0.090 C 
HETATM    9  C8  UNK   900      23.550 -26.325 -52.069  1.00  0.00    -0.028 A 
HETATM   10  C9  UNK   900      22.585 -21.906 -53.401  1.00  0.00     0.015 C 
HETATM   11  C10 UNK   900      20.857 -23.023 -54.789  1.00  0.00     0.015 C 
HETATM   12  C12 UNK   900      22.374 -26.658 -51.371  1.00  0.00     0.018 A 
HETATM   13  C13 UNK   900      21.233 -25.713 -51.294  1.00  0.00     0.160 C 
HETATM   14  C14 UNK   900      24.608 -27.254 -52.038  1.00  0.00     0.010 A 
HETATM   15  C16 UNK   900      22.254 -27.889 -50.706  1.00  0.00     0.023 A 
HETATM   16  C17 UNK   900      23.308 -28.798 -50.715  1.00  0.00    -0.054 A 
HETATM   17  C18 UNK   900      24.486 -28.479 -51.377  1.00  0.00     0.008 A 
ENDROOT
BRANCH   3  18
HETATM   18  C11 UNK   900      24.337 -24.029 -51.781  1.00  0.00     0.136 C 
HETATM   19  O1  UNK   900      23.687 -23.509 -50.875  1.00  0.00    -0.297 OA
HETATM   20  C15 UNK   900      25.808 -23.763 -51.950  1.00  0.00     0.092 C 
ENDBRANCH   3  18
BRANCH  16  21
HETATM   21  C19 UNK   900      23.177 -30.105 -50.008  1.00  0.00     0.010 C 
HETATM   22  C20 UNK   900      22.075 -30.994 -50.615  1.00  0.00     0.015 C 
HETATM   23  C21 UNK   900      24.506 -30.882 -49.957  1.00  0.00     0.015 C 
ENDBRANCH  16  21
TORSDOF 2
ENDMDL
MODEL 6
REMARK VINA RESULT:      -6.1     40.779     42.985
REMARK  2 active torsions:
REMARK  status: ('A' for Active; 'I' for Inactive)
REMARK    1  A    between atoms: C2_4  and  C11_13 
REMARK    2  A    between atoms: C17_19  and  C19_21 
ROOT
HETATM    1  O2  UNK   900       5.904 -67.016 -46.033  1.00  0.00    -0.292 OA
HETATM    2  C1  UNK   900       7.407 -66.983 -49.363  1.00  0.00     0.021 C 
HETATM    3  C2  UNK   900       6.176 -67.475 -50.194  1.00  0.00     0.053 C 
HETATM    4  C3  UNK   900       8.816 -67.238 -50.014  1.00  0.00    -0.042 C 
HETATM    5  C4  UNK   900       6.305 -66.945 -51.648  1.00  0.00     0.023 C 
HETATM    6  C5  UNK   900       8.807 -66.707 -51.467  1.00  0.00     0.009 C 
HETATM    7  C6  UNK   900       7.653 -67.244 -52.298  1.00  0.00     0.002 C 
HETATM    8  C7  UNK   900       7.313 -67.454 -47.905  1.00  0.00     0.090 C 
HETATM    9  C8  UNK   900       4.889 -66.984 -49.512  1.00  0.00    -0.028 A 
HETATM   10  C9  UNK   900       9.246 -68.719 -50.002  1.00  0.00     0.015 C 
HETATM   11  C10 UNK   900       9.909 -66.448 -49.253  1.00  0.00     0.015 C 
HETATM   12  C12 UNK   900       4.830 -66.795 -48.119  1.00  0.00     0.018 A 
HETATM   13  C13 UNK   900       6.006 -67.066 -47.257  1.00  0.00     0.160 C 
HETATM   14  C14 UNK   900       3.708 -66.763 -50.248  1.00  0.00     0.010 A 
HETATM   15  C16 UNK   900       3.646 -66.364 -47.499  1.00  0.00     0.023 A 
HETATM   16  C17 UNK   900       2.502 -66.129 -48.255  1.00  0.00    -0.054 A 
HETATM   17  C18 UNK   900       2.531 -66.333 -49.628  1.00  0.00     0.008 A 
ENDROOT
BRANCH   3  18
HETATM   18  C11 UNK   900       6.073 -68.987 -50.259  1.00  0.00     0.136 C 
HETATM   19  O1  UNK   900       6.276 -69.690 -49.270  1.00  0.00    -0.297 OA
HETATM   20  C15 UNK   900       5.712 -69.585 -51.592  1.00  0.00     0.092 C 
ENDBRANCH   3  18
BRANCH  16  21
HETATM   21  C19 UNK   900       1.246 -65.671 -47.594  1.00  0.00     0.010 C 
HETATM   22  C20 UNK   900       0.062 -66.621 -47.858  1.00  0.00     0.015 C 
HETATM   23  C21 UNK   900       1.422 -65.462 -46.078  1.00  0.00     0.015 C 
ENDBRANCH  16  21
TORSDOF 2
ENDMDL
MODEL 7
REMARK VINA RESULT:      -6.0     31.963     34.643
REMARK  2 active torsions:
REMARK  status: ('A' for Active; 'I' for Inactive)
REMARK    1  A    between atoms: C2_4  and  C11_13 
REMARK    2  A    between atoms: C17_19  and  C19_21 
ROOT
HETATM    1  O2  UNK   900      26.811 -62.019 -39.363  1.00  0.00    -0.292 OA
HETATM    2  C1  UNK   900      23.822 -60.390 -38.035  1.00  0.00     0.021 C 
HETATM    3  C2  UNK   900      24.501 -59.439 -36.995  1.00  0.00     0.053 C 
HETATM    4  C3  UNK   900      22.320 -60.756 -37.746  1.00  0.00    -0.042 C 
HETATM    5  C4  UNK   900      23.584 -58.207 -36.765  1.00  0.00     0.023 C 
HETATM    6  C5  UNK   900      21.520 -59.457 -37.494  1.00  0.00     0.009 C 
HETATM    7  C6  UNK   900      22.139 -58.566 -36.429  1.00  0.00     0.002 C 
HETATM    8  C7  UNK   900      24.705 -61.613 -38.325  1.00  0.00     0.090 C 
HETATM    9  C8  UNK   900      25.887 -59.036 -37.523  1.00  0.00    -0.028 A 
HETATM   10  C9  UNK   900      22.134 -61.723 -36.559  1.00  0.00     0.015 C 
HETATM   11  C10 UNK   900      21.688 -61.440 -38.984  1.00  0.00     0.015 C 
HETATM   12  C12 UNK   900      26.630 -59.898 -38.351  1.00  0.00     0.018 A 
HETATM   13  C13 UNK   900      26.103 -61.228 -38.743  1.00  0.00     0.160 C 
HETATM   14  C14 UNK   900      26.490 -57.818 -37.148  1.00  0.00     0.010 A 
HETATM   15  C16 UNK   900      27.904 -59.533 -38.815  1.00  0.00     0.023 A 
HETATM   16  C17 UNK   900      28.462 -58.312 -38.448  1.00  0.00    -0.054 A 
HETATM   17  C18 UNK   900      27.757 -57.457 -37.612  1.00  0.00     0.008 A 
ENDROOT
BRANCH   3  18
HETATM   18  C11 UNK   900      24.733 -60.102 -35.651  1.00  0.00     0.136 C 
HETATM   19  O1  UNK   900      25.131 -61.262 -35.565  1.00  0.00    -0.297 OA
HETATM   20  C15 UNK   900      24.451 -59.271 -34.429  1.00  0.00     0.092 C 
ENDBRANCH   3  18
BRANCH  16  21
HETATM   21  C19 UNK   900      29.815 -57.927 -38.943  1.00  0.00     0.010 C 
HETATM   22  C20 UNK   900      29.889 -56.445 -39.359  1.00  0.00     0.015 C 
HETATM   23  C21 UNK   900      30.926 -58.240 -37.924  1.00  0.00     0.015 C 
ENDBRANCH  16  21
TORSDOF 2
ENDMDL
MODEL 8
REMARK VINA RESULT:      -6.0     39.440     41.669
REMARK  2 active torsions:
REMARK  status: ('A' for Active; 'I' for Inactive)
REMARK    1  A    between atoms: C2_4  and  C11_13 
REMARK    2  A    between atoms: C17_19  and  C19_21 
ROOT
HETATM    1  O2  UNK   900       6.313 -50.395 -77.087  1.00  0.00    -0.292 OA
HETATM    2  C1  UNK   900       7.699 -53.344 -78.741  1.00  0.00     0.021 C 
HETATM    3  C2  UNK   900       6.457 -53.752 -79.600  1.00  0.00     0.053 C 
HETATM    4  C3  UNK   900       8.712 -54.502 -78.413  1.00  0.00    -0.042 C 
HETATM    5  C4  UNK   900       6.944 -54.537 -80.849  1.00  0.00     0.023 C 
HETATM    6  C5  UNK   900       9.090 -55.232 -79.724  1.00  0.00     0.009 C 
HETATM    7  C6  UNK   900       7.883 -55.695 -80.523  1.00  0.00     0.002 C 
HETATM    8  C7  UNK   900       7.276 -52.535 -77.506  1.00  0.00     0.090 C 
HETATM    9  C8  UNK   900       5.681 -52.482 -79.983  1.00  0.00    -0.028 A 
HETATM   10  C9  UNK   900       8.181 -55.518 -77.383  1.00  0.00     0.015 C 
HETATM   11  C10 UNK   900      10.024 -53.917 -77.831  1.00  0.00     0.015 C 
HETATM   12  C12 UNK   900       5.679 -51.349 -79.147  1.00  0.00     0.018 A 
HETATM   13  C13 UNK   900       6.423 -51.342 -77.864  1.00  0.00     0.160 C 
HETATM   14  C14 UNK   900       4.896 -52.426 -81.152  1.00  0.00     0.010 A 
HETATM   15  C16 UNK   900       4.953 -50.199 -79.492  1.00  0.00     0.023 A 
HETATM   16  C17 UNK   900       4.207 -50.164 -80.667  1.00  0.00    -0.054 A 
HETATM   17  C18 UNK   900       4.175 -51.279 -81.494  1.00  0.00     0.008 A 
ENDROOT
BRANCH   3  18
HETATM   18  C11 UNK   900       5.482 -54.637 -78.847  1.00  0.00     0.136 C 
HETATM   19  O1  UNK   900       5.083 -54.343 -77.721  1.00  0.00    -0.297 OA
HETATM   20  C15 UNK   900       5.028 -55.890 -79.545  1.00  0.00     0.092 C 
ENDBRANCH   3  18
BRANCH  16  21
HETATM   21  C19 UNK   900       3.437 -48.940 -81.031  1.00  0.00     0.010 C 
HETATM   22  C20 UNK   900       2.011 -49.265 -81.518  1.00  0.00     0.015 C 
HETATM   23  C21 UNK   900       3.377 -47.918 -79.881  1.00  0.00     0.015 C 
ENDBRANCH  16  21
TORSDOF 2
ENDMDL
MODEL 9
REMARK VINA RESULT:      -5.8     27.585     29.704
REMARK  2 active torsions:
REMARK  status: ('A' for Active; 'I' for Inactive)
REMARK    1  A    between atoms: C2_4  and  C11_13 
REMARK    2  A    between atoms: C17_19  and  C19_21 
ROOT
HETATM    1  O2  UNK   900       7.092 -27.903 -75.663  1.00  0.00    -0.292 OA
HETATM    2  C1  UNK   900       8.824 -27.295 -78.823  1.00  0.00     0.021 C 
HETATM    3  C2  UNK   900      10.300 -27.338 -78.307  1.00  0.00     0.053 C 
HETATM    4  C3  UNK   900       8.588 -26.485 -80.150  1.00  0.00    -0.042 C 
HETATM    5  C4  UNK   900      11.231 -27.758 -79.477  1.00  0.00     0.023 C 
HETATM    6  C5  UNK   900       9.595 -26.962 -81.222  1.00  0.00     0.009 C 
HETATM    7  C6  UNK   900      11.039 -26.932 -80.746  1.00  0.00     0.002 C 
HETATM    8  C7  UNK   900       7.854 -26.916 -77.694  1.00  0.00     0.090 C 
HETATM    9  C8  UNK   900      10.384 -28.315 -77.124  1.00  0.00    -0.028 A 
HETATM   10  C9  UNK   900       8.698 -24.957 -79.972  1.00  0.00     0.015 C 
HETATM   11  C10 UNK   900       7.171 -26.770 -80.707  1.00  0.00     0.015 C 
HETATM   12  C12 UNK   900       9.282 -28.524 -76.272  1.00  0.00     0.018 A 
HETATM   13  C13 UNK   900       8.002 -27.806 -76.484  1.00  0.00     0.160 C 
HETATM   14  C14 UNK   900      11.581 -28.990 -76.813  1.00  0.00     0.010 A 
HETATM   15  C16 UNK   900       9.370 -29.403 -75.182  1.00  0.00     0.023 A 
HETATM   16  C17 UNK   900      10.559 -30.076 -74.914  1.00  0.00    -0.054 A 
HETATM   17  C18 UNK   900      11.665 -29.866 -75.727  1.00  0.00     0.008 A 
ENDROOT
BRANCH   3  18
HETATM   18  C11 UNK   900      10.784 -25.998 -77.788  1.00  0.00     0.136 C 
HETATM   19  O1  UNK   900      10.351 -25.518 -76.741  1.00  0.00    -0.297 OA
HETATM   20  C15 UNK   900      11.818 -25.284 -78.616  1.00  0.00     0.092 C 
ENDBRANCH   3  18
BRANCH  16  21
HETATM   21  C19 UNK   900      10.649 -31.010 -73.756  1.00  0.00     0.010 C 
HETATM   22  C20 UNK   900       9.922 -32.344 -74.018  1.00  0.00     0.015 C 
HETATM   23  C21 UNK   900      12.104 -31.283 -73.331  1.00  0.00     0.015 C 
ENDBRANCH  16  21
TORSDOF 2
ENDMDL
