MODEL 1
REMARK VINA RESULT:      -7.0      0.000      0.000
REMARK  8 active torsions:
REMARK  status: ('A' for Active; 'I' for Inactive)
REMARK    1  A    between atoms: O2_2  and  C5_14 
REMARK    2  A    between atoms: O2_2  and  C7_16 
REMARK    3  A    between atoms: O3_3  and  C1_10 
REMARK    4  A    between atoms: O4_4  and  C2_11 
REMARK    5  A    between atoms: O5_5  and  C3_12 
REMARK    6  A    between atoms: O6_6  and  C6_15 
REMARK    7  A    between atoms: O8_8  and  C12_21 
REMARK    8  A    between atoms: C4_13  and  C6_15 
ROOT
HETATM    1  O1  UNK   900      35.507 -38.685 -57.847  1.00  0.00    -0.348 OA
HETATM    2  C1  UNK   900      34.250 -37.787 -55.403  1.00  0.00     0.183 C 
HETATM    3  C2  UNK   900      34.810 -39.204 -55.567  1.00  0.00     0.180 C 
HETATM    4  C3  UNK   900      33.950 -37.132 -56.758  1.00  0.00     0.205 C 
HETATM    5  C4  UNK   900      35.943 -39.241 -56.603  1.00  0.00     0.179 C 
HETATM    6  C5  UNK   900      35.097 -37.317 -57.758  1.00  0.00     0.298 C 
ENDROOT
BRANCH   6   7
HETATM    7  O2  UNK   900      36.189 -36.443 -57.480  1.00  0.00    -0.318 OA
BRANCH   7   8
HETATM    8  C7  UNK   900      36.381 -35.405 -58.351  1.00  0.00     0.075 A 
HETATM    9  C8  UNK   900      35.886 -34.137 -58.044  1.00  0.00     0.049 A 
HETATM   10  C10 UNK   900      36.078 -33.072 -58.931  1.00  0.00    -0.012 A 
HETATM   11  C11 UNK   900      36.771 -33.286 -60.125  1.00  0.00     0.083 A 
HETATM   12  C13 UNK   900      35.567 -31.745 -58.624  1.00  0.00     0.045 A 
HETATM   13  C12 UNK   900      37.268 -34.558 -60.432  1.00  0.00     0.085 A 
HETATM   14  C14 UNK   900      36.986 -32.170 -61.076  1.00  0.00     0.301 A 
HETATM   15  C9  UNK   900      37.072 -35.615 -59.544  1.00  0.00     0.074 A 
HETATM   16  O7  UNK   900      36.475 -30.954 -60.714  1.00  0.00    -0.280 OA
HETATM   17  O9  UNK   900      37.587 -32.309 -62.134  1.00  0.00    -0.259 OA
HETATM   18  C15 UNK   900      35.776 -30.756 -59.500  1.00  0.00     0.054 A 
HETATM   19  C16 UNK   900      35.298 -29.356 -59.297  1.00  0.00     0.077 C 
BRANCH  13  20
HETATM   20  O8  UNK   900      37.952 -34.825 -61.582  1.00  0.00    -0.360 OA
HETATM   21  H15 UNK   900      38.059 -35.780 -61.704  1.00  0.00     0.217 HD
ENDBRANCH  13  20
ENDBRANCH   7   8
ENDBRANCH   6   7
BRANCH   4  22
HETATM   22  O5  UNK   900      32.779 -37.719 -57.322  1.00  0.00    -0.388 OA
HETATM   23  H10 UNK   900      32.890 -37.731 -58.287  1.00  0.00     0.210 HD
ENDBRANCH   4  22
BRANCH   5  24
HETATM   24  C6  UNK   900      36.424 -40.659 -56.883  1.00  0.00     0.198 C 
BRANCH  24  25
HETATM   25  O6  UNK   900      35.601 -41.226 -57.886  1.00  0.00    -0.398 OA
HETATM   26  H11 UNK   900      35.926 -42.128 -58.049  1.00  0.00     0.209 HD
ENDBRANCH  24  25
ENDBRANCH   5  24
BRANCH   2  27
HETATM   27  O3  UNK   900      35.210 -37.004 -54.697  1.00  0.00    -0.390 OA
HETATM   28  H8  UNK   900      34.792 -36.154 -54.478  1.00  0.00     0.210 HD
ENDBRANCH   2  27
BRANCH   3  29
HETATM   29  O4  UNK   900      33.758 -40.088 -55.948  1.00  0.00    -0.390 OA
HETATM   30  H9  UNK   900      32.984 -39.545 -56.171  1.00  0.00     0.210 HD
ENDBRANCH   3  29
TORSDOF 8
ENDMDL
MODEL 2
REMARK VINA RESULT:      -6.3     33.595     35.047
REMARK  8 active torsions:
REMARK  status: ('A' for Active; 'I' for Inactive)
REMARK    1  A    between atoms: O2_2  and  C5_14 
REMARK    2  A    between atoms: O2_2  and  C7_16 
REMARK    3  A    between atoms: O3_3  and  C1_10 
REMARK    4  A    between atoms: O4_4  and  C2_11 
REMARK    5  A    between atoms: O5_5  and  C3_12 
REMARK    6  A    between atoms: O6_6  and  C6_15 
REMARK    7  A    between atoms: O8_8  and  C12_21 
REMARK    8  A    between atoms: C4_13  and  C6_15 
ROOT
HETATM    1  O1  UNK   900      20.218 -62.199 -71.494  1.00  0.00    -0.348 OA
HETATM    2  C1  UNK   900      17.521 -62.746 -72.384  1.00  0.00     0.183 C 
HETATM    3  C2  UNK   900      18.629 -62.300 -73.343  1.00  0.00     0.180 C 
HETATM    4  C3  UNK   900      17.834 -62.358 -70.932  1.00  0.00     0.205 C 
HETATM    5  C4  UNK   900      20.017 -62.699 -72.820  1.00  0.00     0.179 C 
HETATM    6  C5  UNK   900      19.277 -62.698 -70.539  1.00  0.00     0.298 C 
ENDROOT
BRANCH   6   7
HETATM    7  O2  UNK   900      19.444 -64.093 -70.293  1.00  0.00    -0.318 OA
BRANCH   7   8
HETATM    8  C7  UNK   900      19.585 -64.473 -68.986  1.00  0.00     0.075 A 
HETATM    9  C8  UNK   900      20.800 -64.994 -68.539  1.00  0.00     0.049 A 
HETATM   10  C10 UNK   900      20.949 -65.386 -67.203  1.00  0.00    -0.012 A 
HETATM   11  C11 UNK   900      19.875 -65.250 -66.321  1.00  0.00     0.083 A 
HETATM   12  C13 UNK   900      22.210 -65.930 -66.724  1.00  0.00     0.045 A 
HETATM   13  C12 UNK   900      18.656 -64.728 -66.770  1.00  0.00     0.085 A 
HETATM   14  C14 UNK   900      20.015 -65.659 -64.904  1.00  0.00     0.301 A 
HETATM   15  C9  UNK   900      18.515 -64.340 -68.102  1.00  0.00     0.074 A 
HETATM   16  O7  UNK   900      21.231 -66.161 -64.531  1.00  0.00    -0.280 OA
HETATM   17  O9  UNK   900      19.103 -65.559 -64.093  1.00  0.00    -0.259 OA
HETATM   18  C15 UNK   900      22.308 -66.290 -65.439  1.00  0.00     0.054 A 
HETATM   19  C16 UNK   900      23.547 -66.862 -64.832  1.00  0.00     0.077 C 
BRANCH  13  20
HETATM   20  O8  UNK   900      17.574 -64.573 -65.954  1.00  0.00    -0.360 OA
HETATM   21  H15 UNK   900      17.158 -63.710 -66.096  1.00  0.00     0.217 HD
ENDBRANCH  13  20
ENDBRANCH   7   8
ENDBRANCH   6   7
BRANCH   4  22
HETATM   22  O5  UNK   900      17.655 -60.953 -70.765  1.00  0.00    -0.388 OA
HETATM   23  H10 UNK   900      17.158 -60.814 -69.942  1.00  0.00     0.210 HD
ENDBRANCH   4  22
BRANCH   5  24
HETATM   24  C6  UNK   900      21.143 -62.149 -73.687  1.00  0.00     0.198 C 
BRANCH  24  25
HETATM   25  O6  UNK   900      21.364 -60.795 -73.336  1.00  0.00    -0.398 OA
HETATM   26  H11 UNK   900      22.083 -60.465 -73.901  1.00  0.00     0.209 HD
ENDBRANCH  24  25
ENDBRANCH   5  24
BRANCH   2  27
HETATM   27  O3  UNK   900      17.388 -64.162 -72.480  1.00  0.00    -0.390 OA
HETATM   28  H8  UNK   900      18.278 -64.546 -72.412  1.00  0.00     0.210 HD
ENDBRANCH   2  27
BRANCH   3  29
HETATM   29  O4  UNK   900      18.555 -60.888 -73.531  1.00  0.00    -0.390 OA
HETATM   30  H9  UNK   900      18.186 -60.503 -72.719  1.00  0.00     0.210 HD
ENDBRANCH   3  29
TORSDOF 8
ENDMDL
MODEL 3
REMARK VINA RESULT:      -6.2     41.754     45.103
REMARK  8 active torsions:
REMARK  status: ('A' for Active; 'I' for Inactive)
REMARK    1  A    between atoms: O2_2  and  C5_14 
REMARK    2  A    between atoms: O2_2  and  C7_16 
REMARK    3  A    between atoms: O3_3  and  C1_10 
REMARK    4  A    between atoms: O4_4  and  C2_11 
REMARK    5  A    between atoms: O5_5  and  C3_12 
REMARK    6  A    between atoms: O6_6  and  C6_15 
REMARK    7  A    between atoms: O8_8  and  C12_21 
REMARK    8  A    between atoms: C4_13  and  C6_15 
ROOT
HETATM    1  O1  UNK   900       7.270 -68.739 -49.255  1.00  0.00    -0.348 OA
HETATM    2  C1  UNK   900       9.248 -66.629 -49.272  1.00  0.00     0.183 C 
HETATM    3  C2  UNK   900       9.619 -68.106 -49.442  1.00  0.00     0.180 C 
HETATM    4  C3  UNK   900       7.885 -66.459 -48.586  1.00  0.00     0.205 C 
HETATM    5  C4  UNK   900       8.455 -68.911 -50.038  1.00  0.00     0.179 C 
HETATM    6  C5  UNK   900       6.817 -67.384 -49.182  1.00  0.00     0.298 C 
ENDROOT
BRANCH   6   7
HETATM    7  O2  UNK   900       6.341 -66.904 -50.437  1.00  0.00    -0.318 OA
BRANCH   7   8
HETATM    8  C7  UNK   900       4.995 -66.678 -50.538  1.00  0.00     0.075 A 
HETATM    9  C8  UNK   900       4.170 -66.882 -49.431  1.00  0.00     0.049 A 
HETATM   10  C10 UNK   900       2.792 -66.654 -49.529  1.00  0.00    -0.012 A 
HETATM   11  C11 UNK   900       2.250 -66.219 -50.740  1.00  0.00     0.083 A 
HETATM   12  C13 UNK   900       1.920 -66.862 -48.383  1.00  0.00     0.045 A 
HETATM   13  C12 UNK   900       3.078 -66.015 -51.850  1.00  0.00     0.085 A 
HETATM   14  C14 UNK   900       0.794 -65.971 -50.862  1.00  0.00     0.301 A 
HETATM   15  C9  UNK   900       4.449 -66.245 -51.746  1.00  0.00     0.074 A 
HETATM   16  O7  UNK   900       0.043 -66.190 -49.740  1.00  0.00    -0.280 OA
HETATM   17  O9  UNK   900       0.272 -65.590 -51.902  1.00  0.00    -0.259 OA
HETATM   18  C15 UNK   900       0.610 -66.630 -48.522  1.00  0.00     0.054 A 
HETATM   19  C16 UNK   900      -0.383 -66.810 -47.421  1.00  0.00     0.077 C 
BRANCH  13  20
HETATM   20  O8  UNK   900       2.604 -65.591 -53.057  1.00  0.00    -0.360 OA
HETATM   21  H15 UNK   900       2.366 -66.346 -53.616  1.00  0.00     0.217 HD
ENDBRANCH  13  20
ENDBRANCH   7   8
ENDBRANCH   6   7
BRANCH   4  22
HETATM   22  O5  UNK   900       8.008 -66.769 -47.200  1.00  0.00    -0.388 OA
HETATM   23  H10 UNK   900       7.828 -67.717 -47.092  1.00  0.00     0.210 HD
ENDBRANCH   4  22
BRANCH   5  24
HETATM   24  C6  UNK   900       8.752 -70.405 -50.090  1.00  0.00     0.198 C 
BRANCH  24  25
HETATM   25  O6  UNK   900       8.391 -70.981 -48.847  1.00  0.00    -0.398 OA
HETATM   26  H11 UNK   900       8.901 -70.522 -48.159  1.00  0.00     0.209 HD
ENDBRANCH  24  25
ENDBRANCH   5  24
BRANCH   2  27
HETATM   27  O3  UNK   900       9.210 -66.026 -50.564  1.00  0.00    -0.390 OA
HETATM   28  H8  UNK   900       9.992 -65.454 -50.643  1.00  0.00     0.210 HD
ENDBRANCH   2  27
BRANCH   3  29
HETATM   29  O4  UNK   900      10.003 -68.647 -48.179  1.00  0.00    -0.390 OA
HETATM   30  H9  UNK   900      10.178 -69.594 -48.306  1.00  0.00     0.210 HD
ENDBRANCH   3  29
TORSDOF 8
ENDMDL
MODEL 4
REMARK VINA RESULT:      -6.1     31.005     34.319
REMARK  8 active torsions:
REMARK  status: ('A' for Active; 'I' for Inactive)
REMARK    1  A    between atoms: O2_2  and  C5_14 
REMARK    2  A    between atoms: O2_2  and  C7_16 
REMARK    3  A    between atoms: O3_3  and  C1_10 
REMARK    4  A    between atoms: O4_4  and  C2_11 
REMARK    5  A    between atoms: O5_5  and  C3_12 
REMARK    6  A    between atoms: O6_6  and  C6_15 
REMARK    7  A    between atoms: O8_8  and  C12_21 
REMARK    8  A    between atoms: C4_13  and  C6_15 
ROOT
HETATM    1  O1  UNK   900      26.396 -59.729 -37.376  1.00  0.00    -0.348 OA
HETATM    2  C1  UNK   900      27.630 -57.114 -37.389  1.00  0.00     0.183 C 
HETATM    3  C2  UNK   900      28.262 -58.325 -38.083  1.00  0.00     0.180 C 
HETATM    4  C3  UNK   900      26.635 -57.536 -36.300  1.00  0.00     0.205 C 
HETATM    5  C4  UNK   900      27.197 -59.350 -38.500  1.00  0.00     0.179 C 
HETATM    6  C5  UNK   900      25.685 -58.641 -36.779  1.00  0.00     0.298 C 
ENDROOT
BRANCH   6   7
HETATM    7  O2  UNK   900      24.665 -58.129 -37.634  1.00  0.00    -0.318 OA
BRANCH   7   8
HETATM    8  C7  UNK   900      23.481 -58.815 -37.656  1.00  0.00     0.075 A 
HETATM    9  C8  UNK   900      22.533 -58.602 -36.654  1.00  0.00     0.049 A 
HETATM   10  C10 UNK   900      21.321 -59.301 -36.671  1.00  0.00    -0.012 A 
HETATM   11  C11 UNK   900      21.066 -60.214 -37.698  1.00  0.00     0.083 A 
HETATM   12  C13 UNK   900      20.324 -59.089 -35.634  1.00  0.00     0.045 A 
HETATM   13  C12 UNK   900      22.018 -60.427 -38.703  1.00  0.00     0.085 A 
HETATM   14  C14 UNK   900      19.788 -60.962 -37.733  1.00  0.00     0.301 A 
HETATM   15  C9  UNK   900      23.223 -59.727 -38.679  1.00  0.00     0.074 A 
HETATM   16  O7  UNK   900      18.904 -60.706 -36.722  1.00  0.00    -0.280 OA
HETATM   17  O9  UNK   900      19.519 -61.772 -38.612  1.00  0.00    -0.259 OA
HETATM   18  C15 UNK   900      19.179 -59.779 -35.691  1.00  0.00     0.054 A 
HETATM   19  C16 UNK   900      18.083 -59.648 -34.684  1.00  0.00     0.077 C 
BRANCH  13  20
HETATM   20  O8  UNK   900      21.823 -61.304 -39.729  1.00  0.00    -0.360 OA
HETATM   21  H15 UNK   900      21.074 -61.889 -39.543  1.00  0.00     0.217 HD
ENDBRANCH  13  20
ENDBRANCH   7   8
ENDBRANCH   6   7
BRANCH   4  22
HETATM   22  O5  UNK   900      27.348 -58.033 -35.169  1.00  0.00    -0.388 OA
HETATM   23  H10 UNK   900      27.352 -57.336 -34.493  1.00  0.00     0.210 HD
ENDBRANCH   4  22
BRANCH   5  24
HETATM   24  C6  UNK   900      27.812 -60.624 -39.069  1.00  0.00     0.198 C 
BRANCH  24  25
HETATM   25  O6  UNK   900      28.979 -60.278 -39.792  1.00  0.00    -0.398 OA
HETATM   26  H11 UNK   900      29.514 -59.704 -39.219  1.00  0.00     0.209 HD
ENDBRANCH  24  25
ENDBRANCH   5  24
BRANCH   2  27
HETATM   27  O3  UNK   900      26.956 -56.335 -38.375  1.00  0.00    -0.390 OA
HETATM   28  H8  UNK   900      26.932 -56.856 -39.195  1.00  0.00     0.210 HD
ENDBRANCH   2  27
BRANCH   3  29
HETATM   29  O4  UNK   900      29.218 -58.926 -37.212  1.00  0.00    -0.390 OA
HETATM   30  H9  UNK   900      28.908 -58.794 -36.300  1.00  0.00     0.210 HD
ENDBRANCH   3  29
TORSDOF 8
ENDMDL
MODEL 5
REMARK VINA RESULT:      -6.0     29.119     32.223
REMARK  8 active torsions:
REMARK  status: ('A' for Active; 'I' for Inactive)
REMARK    1  A    between atoms: O2_2  and  C5_14 
REMARK    2  A    between atoms: O2_2  and  C7_16 
REMARK    3  A    between atoms: O3_3  and  C1_10 
REMARK    4  A    between atoms: O4_4  and  C2_11 
REMARK    5  A    between atoms: O5_5  and  C3_12 
REMARK    6  A    between atoms: O6_6  and  C6_15 
REMARK    7  A    between atoms: O8_8  and  C12_21 
REMARK    8  A    between atoms: C4_13  and  C6_15 
ROOT
HETATM    1  O1  UNK   900      17.835 -53.177 -35.592  1.00  0.00    -0.348 OA
HETATM    2  C1  UNK   900      15.385 -53.359 -37.116  1.00  0.00     0.183 C 
HETATM    3  C2  UNK   900      15.810 -54.435 -36.111  1.00  0.00     0.180 C 
HETATM    4  C3  UNK   900      16.579 -52.523 -37.596  1.00  0.00     0.205 C 
HETATM    5  C4  UNK   900      16.713 -53.851 -35.014  1.00  0.00     0.179 C 
HETATM    6  C5  UNK   900      17.479 -52.079 -36.437  1.00  0.00     0.298 C 
ENDROOT
BRANCH   6   7
HETATM    7  O2  UNK   900      16.906 -50.998 -35.705  1.00  0.00    -0.318 OA
BRANCH   7   8
HETATM    8  C7  UNK   900      17.385 -49.746 -35.983  1.00  0.00     0.075 A 
HETATM    9  C8  UNK   900      16.528 -48.646 -35.934  1.00  0.00     0.049 A 
HETATM   10  C10 UNK   900      17.011 -47.363 -36.219  1.00  0.00    -0.012 A 
HETATM   11  C11 UNK   900      18.357 -47.192 -36.551  1.00  0.00     0.083 A 
HETATM   12  C13 UNK   900      16.130 -46.208 -36.171  1.00  0.00     0.045 A 
HETATM   13  C12 UNK   900      19.216 -48.297 -36.601  1.00  0.00     0.085 A 
HETATM   14  C14 UNK   900      18.887 -45.842 -36.855  1.00  0.00     0.301 A 
HETATM   15  C9  UNK   900      18.727 -49.571 -36.316  1.00  0.00     0.074 A 
HETATM   16  O7  UNK   900      17.995 -44.808 -36.788  1.00  0.00    -0.280 OA
HETATM   17  O9  UNK   900      20.058 -45.642 -37.151  1.00  0.00    -0.259 OA
HETATM   18  C15 UNK   900      16.635 -45.001 -36.450  1.00  0.00     0.054 A 
HETATM   19  C16 UNK   900      15.830 -43.743 -36.435  1.00  0.00     0.077 C 
BRANCH  13  20
HETATM   20  O8  UNK   900      20.538 -48.189 -36.919  1.00  0.00    -0.360 OA
HETATM   21  H15 UNK   900      20.741 -48.694 -37.720  1.00  0.00     0.217 HD
ENDBRANCH  13  20
ENDBRANCH   7   8
ENDBRANCH   6   7
BRANCH   4  22
HETATM   22  O5  UNK   900      17.372 -53.297 -38.494  1.00  0.00    -0.388 OA
HETATM   23  H10 UNK   900      18.282 -53.303 -38.154  1.00  0.00     0.210 HD
ENDBRANCH   4  22
BRANCH   5  24
HETATM   24  C6  UNK   900      17.259 -54.926 -34.082  1.00  0.00     0.198 C 
BRANCH  24  25
HETATM   25  O6  UNK   900      18.487 -55.398 -34.606  1.00  0.00    -0.398 OA
HETATM   26  H11 UNK   900      18.411 -55.383 -35.575  1.00  0.00     0.209 HD
ENDBRANCH  24  25
ENDBRANCH   5  24
BRANCH   2  27
HETATM   27  O3  UNK   900      14.431 -52.508 -36.484  1.00  0.00    -0.390 OA
HETATM   28  H8  UNK   900      14.037 -53.006 -35.747  1.00  0.00     0.210 HD
ENDBRANCH   2  27
BRANCH   3  29
HETATM   29  O4  UNK   900      16.481 -55.488 -36.800  1.00  0.00    -0.390 OA
HETATM   30  H9  UNK   900      17.399 -55.509 -36.481  1.00  0.00     0.210 HD
ENDBRANCH   3  29
TORSDOF 8
ENDMDL
MODEL 6
REMARK VINA RESULT:      -5.9     34.948     36.837
REMARK  8 active torsions:
REMARK  status: ('A' for Active; 'I' for Inactive)
REMARK    1  A    between atoms: O2_2  and  C5_14 
REMARK    2  A    between atoms: O2_2  and  C7_16 
REMARK    3  A    between atoms: O3_3  and  C1_10 
REMARK    4  A    between atoms: O4_4  and  C2_11 
REMARK    5  A    between atoms: O5_5  and  C3_12 
REMARK    6  A    between atoms: O6_6  and  C6_15 
REMARK    7  A    between atoms: O8_8  and  C12_21 
REMARK    8  A    between atoms: C4_13  and  C6_15 
ROOT
HETATM    1  O1  UNK   900      10.271 -52.017 -73.208  1.00  0.00    -0.348 OA
HETATM    2  C1  UNK   900       7.701 -51.103 -74.169  1.00  0.00     0.183 C 
HETATM    3  C2  UNK   900       8.452 -50.400 -73.034  1.00  0.00     0.180 C 
HETATM    4  C3  UNK   900       8.163 -52.556 -74.344  1.00  0.00     0.205 C 
HETATM    5  C4  UNK   900       9.968 -50.620 -73.145  1.00  0.00     0.179 C 
HETATM    6  C5  UNK   900       9.691 -52.684 -74.333  1.00  0.00     0.298 C 
ENDROOT
BRANCH   6   7
HETATM    7  O2  UNK   900      10.267 -52.263 -75.567  1.00  0.00    -0.318 OA
BRANCH   7   8
HETATM    8  C7  UNK   900      10.214 -53.153 -76.605  1.00  0.00     0.075 A 
HETATM    9  C8  UNK   900       9.120 -53.148 -77.472  1.00  0.00     0.049 A 
HETATM   10  C10 UNK   900       9.060 -54.057 -78.535  1.00  0.00    -0.012 A 
HETATM   11  C11 UNK   900      10.103 -54.968 -78.723  1.00  0.00     0.083 A 
HETATM   12  C13 UNK   900       7.927 -54.063 -79.447  1.00  0.00     0.045 A 
HETATM   13  C12 UNK   900      11.199 -54.972 -77.853  1.00  0.00     0.085 A 
HETATM   14  C14 UNK   900      10.057 -55.937 -79.843  1.00  0.00     0.301 A 
HETATM   15  C9  UNK   900      11.252 -54.064 -76.796  1.00  0.00     0.074 A 
HETATM   16  O7  UNK   900       8.958 -55.878 -80.655  1.00  0.00    -0.280 OA
HETATM   17  O9  UNK   900      10.946 -56.754 -80.048  1.00  0.00    -0.259 OA
HETATM   18  C15 UNK   900       7.912 -54.949 -80.449  1.00  0.00     0.054 A 
HETATM   19  C16 UNK   900       6.804 -55.052 -81.446  1.00  0.00     0.077 C 
BRANCH  13  20
HETATM   20  O8  UNK   900      12.245 -55.838 -77.988  1.00  0.00    -0.360 OA
HETATM   21  H15 UNK   900      11.975 -56.628 -78.478  1.00  0.00     0.217 HD
ENDBRANCH  13  20
ENDBRANCH   7   8
ENDBRANCH   6   7
BRANCH   4  22
HETATM   22  O5  UNK   900       7.650 -53.351 -73.276  1.00  0.00    -0.388 OA
HETATM   23  H10 UNK   900       8.388 -53.550 -72.676  1.00  0.00     0.210 HD
ENDBRANCH   4  22
BRANCH   5  24
HETATM   24  C6  UNK   900      10.725 -50.046 -71.953  1.00  0.00     0.198 C 
BRANCH  24  25
HETATM   25  O6  UNK   900      10.938 -51.081 -71.010  1.00  0.00    -0.398 OA
HETATM   26  H11 UNK   900      11.515 -50.722 -70.315  1.00  0.00     0.209 HD
ENDBRANCH  24  25
ENDBRANCH   5  24
BRANCH   2  27
HETATM   27  O3  UNK   900       7.935 -50.380 -75.376  1.00  0.00    -0.390 OA
HETATM   28  H8  UNK   900       8.027 -51.030 -76.094  1.00  0.00     0.210 HD
ENDBRANCH   2  27
BRANCH   3  29
HETATM   29  O4  UNK   900       7.970 -50.877 -71.779  1.00  0.00    -0.390 OA
HETATM   30  H9  UNK   900       8.582 -50.563 -71.092  1.00  0.00     0.210 HD
ENDBRANCH   3  29
TORSDOF 8
ENDMDL
MODEL 7
REMARK VINA RESULT:      -5.8     35.258     37.183
REMARK  8 active torsions:
REMARK  status: ('A' for Active; 'I' for Inactive)
REMARK    1  A    between atoms: O2_2  and  C5_14 
REMARK    2  A    between atoms: O2_2  and  C7_16 
REMARK    3  A    between atoms: O3_3  and  C1_10 
REMARK    4  A    between atoms: O4_4  and  C2_11 
REMARK    5  A    between atoms: O5_5  and  C3_12 
REMARK    6  A    between atoms: O6_6  and  C6_15 
REMARK    7  A    between atoms: O8_8  and  C12_21 
REMARK    8  A    between atoms: C4_13  and  C6_15 
ROOT
HETATM    1  O1  UNK   900       9.904 -51.846 -73.477  1.00  0.00    -0.348 OA
HETATM    2  C1  UNK   900       7.453 -50.454 -74.120  1.00  0.00     0.183 C 
HETATM    3  C2  UNK   900       8.401 -49.981 -73.013  1.00  0.00     0.180 C 
HETATM    4  C3  UNK   900       7.650 -51.941 -74.443  1.00  0.00     0.205 C 
HETATM    5  C4  UNK   900       9.845 -50.429 -73.284  1.00  0.00     0.179 C 
HETATM    6  C5  UNK   900       9.131 -52.311 -74.587  1.00  0.00     0.298 C 
ENDROOT
BRANCH   6   7
HETATM    7  O2  UNK   900       9.665 -51.881 -75.837  1.00  0.00    -0.318 OA
BRANCH   7   8
HETATM    8  C7  UNK   900       9.296 -52.598 -76.943  1.00  0.00     0.075 A 
HETATM    9  C8  UNK   900      10.017 -53.736 -77.307  1.00  0.00     0.049 A 
HETATM   10  C10 UNK   900       9.645 -54.474 -78.437  1.00  0.00    -0.012 A 
HETATM   11  C11 UNK   900       8.547 -54.063 -79.197  1.00  0.00     0.083 A 
HETATM   12  C13 UNK   900      10.387 -55.662 -78.828  1.00  0.00     0.045 A 
HETATM   13  C12 UNK   900       7.825 -52.921 -78.831  1.00  0.00     0.085 A 
HETATM   14  C14 UNK   900       8.138 -54.831 -80.396  1.00  0.00     0.301 A 
HETATM   15  C9  UNK   900       8.202 -52.191 -77.704  1.00  0.00     0.074 A 
HETATM   16  O7  UNK   900       8.887 -55.935 -80.697  1.00  0.00    -0.280 OA
HETATM   17  O9  UNK   900       7.184 -54.511 -81.094  1.00  0.00    -0.259 OA
HETATM   18  C15 UNK   900       9.995 -56.336 -79.915  1.00  0.00     0.054 A 
HETATM   19  C16 UNK   900      10.677 -57.567 -80.416  1.00  0.00     0.077 C 
BRANCH  13  20
HETATM   20  O8  UNK   900       6.746 -52.473 -79.535  1.00  0.00    -0.360 OA
HETATM   21  H15 UNK   900       7.006 -52.203 -80.428  1.00  0.00     0.217 HD
ENDBRANCH  13  20
ENDBRANCH   7   8
ENDBRANCH   6   7
BRANCH   4  22
HETATM   22  O5  UNK   900       7.101 -52.733 -73.392  1.00  0.00    -0.388 OA
HETATM   23  H10 UNK   900       7.813 -53.297 -73.045  1.00  0.00     0.210 HD
ENDBRANCH   4  22
BRANCH   5  24
HETATM   24  C6  UNK   900      10.782 -50.089 -72.132  1.00  0.00     0.198 C 
BRANCH  24  25
HETATM   25  O6  UNK   900      10.771 -51.162 -71.207  1.00  0.00    -0.398 OA
HETATM   26  H11 UNK   900      10.334 -50.842 -70.400  1.00  0.00     0.209 HD
ENDBRANCH  24  25
ENDBRANCH   5  24
BRANCH   2  27
HETATM   27  O3  UNK   900       7.703 -49.675 -75.288  1.00  0.00    -0.390 OA
HETATM   28  H8  UNK   900       8.656 -49.484 -75.314  1.00  0.00     0.210 HD
ENDBRANCH   2  27
BRANCH   3  29
HETATM   29  O4  UNK   900       7.951 -50.483 -71.757  1.00  0.00    -0.390 OA
HETATM   30  H9  UNK   900       7.749 -49.719 -71.191  1.00  0.00     0.210 HD
ENDBRANCH   3  29
TORSDOF 8
ENDMDL
MODEL 8
REMARK VINA RESULT:      -5.7     41.291     43.111
REMARK  8 active torsions:
REMARK  status: ('A' for Active; 'I' for Inactive)
REMARK    1  A    between atoms: O2_2  and  C5_14 
REMARK    2  A    between atoms: O2_2  and  C7_16 
REMARK    3  A    between atoms: O3_3  and  C1_10 
REMARK    4  A    between atoms: O4_4  and  C2_11 
REMARK    5  A    between atoms: O5_5  and  C3_12 
REMARK    6  A    between atoms: O6_6  and  C6_15 
REMARK    7  A    between atoms: O8_8  and  C12_21 
REMARK    8  A    between atoms: C4_13  and  C6_15 
ROOT
HETATM    1  O1  UNK   900       3.653 -63.827 -62.822  1.00  0.00    -0.348 OA
HETATM    2  C1  UNK   900       5.337 -65.228 -60.934  1.00  0.00     0.183 C 
HETATM    3  C2  UNK   900       5.768 -64.962 -62.380  1.00  0.00     0.180 C 
HETATM    4  C3  UNK   900       3.811 -65.169 -60.773  1.00  0.00     0.205 C 
HETATM    5  C4  UNK   900       5.074 -63.715 -62.950  1.00  0.00     0.179 C 
HETATM    6  C5  UNK   900       3.202 -63.947 -61.470  1.00  0.00     0.298 C 
ENDROOT
BRANCH   6   7
HETATM    7  O2  UNK   900       3.413 -62.751 -60.722  1.00  0.00    -0.318 OA
BRANCH   7   8
HETATM    8  C7  UNK   900       2.432 -61.799 -60.798  1.00  0.00     0.075 A 
HETATM    9  C8  UNK   900       1.124 -62.115 -60.428  1.00  0.00     0.049 A 
HETATM   10  C10 UNK   900       0.118 -61.146 -60.504  1.00  0.00    -0.012 A 
HETATM   11  C11 UNK   900       0.431 -59.860 -60.952  1.00  0.00     0.083 A 
HETATM   12  C13 UNK   900      -1.250 -61.461 -60.121  1.00  0.00     0.045 A 
HETATM   13  C12 UNK   900       1.743 -59.544 -61.323  1.00  0.00     0.085 A 
HETATM   14  C14 UNK   900      -0.621 -58.821 -61.038  1.00  0.00     0.301 A 
HETATM   15  C9  UNK   900       2.741 -60.515 -61.245  1.00  0.00     0.074 A 
HETATM   16  O7  UNK   900      -1.881 -59.196 -60.660  1.00  0.00    -0.280 OA
HETATM   17  O9  UNK   900      -0.396 -57.681 -61.424  1.00  0.00    -0.259 OA
HETATM   18  C15 UNK   900      -2.180 -60.503 -60.209  1.00  0.00     0.054 A 
HETATM   19  C16 UNK   900      -3.614 -60.706 -59.848  1.00  0.00     0.077 C 
BRANCH  13  20
HETATM   20  O8  UNK   900       2.107 -58.306 -61.767  1.00  0.00    -0.360 OA
HETATM   21  H15 UNK   900       2.618 -58.372 -62.586  1.00  0.00     0.217 HD
ENDBRANCH  13  20
ENDBRANCH   7   8
ENDBRANCH   6   7
BRANCH   4  22
HETATM   22  O5  UNK   900       3.227 -66.337 -61.348  1.00  0.00    -0.388 OA
HETATM   23  H10 UNK   900       2.596 -66.699 -60.704  1.00  0.00     0.210 HD
ENDBRANCH   4  22
BRANCH   5  24
HETATM   24  C6  UNK   900       5.381 -63.508 -64.429  1.00  0.00     0.198 C 
BRANCH  24  25
HETATM   25  O6  UNK   900       6.749 -63.167 -64.563  1.00  0.00    -0.398 OA
HETATM   26  H11 UNK   900       7.266 -63.895 -64.177  1.00  0.00     0.209 HD
ENDBRANCH  24  25
ENDBRANCH   5  24
BRANCH   2  27
HETATM   27  O3  UNK   900       5.942 -64.244 -60.098  1.00  0.00    -0.390 OA
HETATM   28  H8  UNK   900       5.429 -63.424 -60.191  1.00  0.00     0.210 HD
ENDBRANCH   2  27
BRANCH   3  29
HETATM   29  O4  UNK   900       5.475 -66.105 -63.181  1.00  0.00    -0.390 OA
HETATM   30  H9  UNK   900       6.060 -66.824 -62.891  1.00  0.00     0.210 HD
ENDBRANCH   3  29
TORSDOF 8
ENDMDL
MODEL 9
REMARK VINA RESULT:      -5.6     33.570     35.498
REMARK  8 active torsions:
REMARK  status: ('A' for Active; 'I' for Inactive)
REMARK    1  A    between atoms: O2_2  and  C5_14 
REMARK    2  A    between atoms: O2_2  and  C7_16 
REMARK    3  A    between atoms: O3_3  and  C1_10 
REMARK    4  A    between atoms: O4_4  and  C2_11 
REMARK    5  A    between atoms: O5_5  and  C3_12 
REMARK    6  A    between atoms: O6_6  and  C6_15 
REMARK    7  A    between atoms: O8_8  and  C12_21 
REMARK    8  A    between atoms: C4_13  and  C6_15 
ROOT
HETATM    1  O1  UNK   900      17.632 -63.879 -71.769  1.00  0.00    -0.348 OA
HETATM    2  C1  UNK   900      19.092 -61.424 -72.218  1.00  0.00     0.183 C 
HETATM    3  C2  UNK   900      17.872 -61.820 -73.056  1.00  0.00     0.180 C 
HETATM    4  C3  UNK   900      19.738 -62.640 -71.541  1.00  0.00     0.205 C 
HETATM    5  C4  UNK   900      16.926 -62.739 -72.268  1.00  0.00     0.179 C 
HETATM    6  C5  UNK   900      18.700 -63.552 -70.876  1.00  0.00     0.298 C 
ENDROOT
BRANCH   6   7
HETATM    7  O2  UNK   900      18.229 -63.010 -69.645  1.00  0.00    -0.318 OA
BRANCH   7   8
HETATM    8  C7  UNK   900      18.505 -63.727 -68.512  1.00  0.00     0.075 A 
HETATM    9  C8  UNK   900      19.808 -64.162 -68.264  1.00  0.00     0.049 A 
HETATM   10  C10 UNK   900      20.096 -64.897 -67.108  1.00  0.00    -0.012 A 
HETATM   11  C11 UNK   900      19.072 -65.190 -66.204  1.00  0.00     0.083 A 
HETATM   12  C13 UNK   900      21.449 -65.357 -66.836  1.00  0.00     0.045 A 
HETATM   13  C12 UNK   900      17.766 -64.752 -66.454  1.00  0.00     0.085 A 
HETATM   14  C14 UNK   900      19.359 -65.965 -64.974  1.00  0.00     0.301 A 
HETATM   15  C9  UNK   900      17.486 -64.022 -67.608  1.00  0.00     0.074 A 
HETATM   16  O7  UNK   900      20.655 -66.361 -64.792  1.00  0.00    -0.280 OA
HETATM   17  O9  UNK   900      18.495 -66.246 -64.153  1.00  0.00    -0.259 OA
HETATM   18  C15 UNK   900      21.679 -66.055 -65.718  1.00  0.00     0.054 A 
HETATM   19  C16 UNK   900      23.023 -66.581 -65.333  1.00  0.00     0.077 C 
BRANCH  13  20
HETATM   20  O8  UNK   900      16.728 -65.009 -65.607  1.00  0.00    -0.360 OA
HETATM   21  H15 UNK   900      15.922 -64.562 -65.906  1.00  0.00     0.217 HD
ENDBRANCH  13  20
ENDBRANCH   7   8
ENDBRANCH   6   7
BRANCH   4  22
HETATM   22  O5  UNK   900      20.438 -63.411 -72.515  1.00  0.00    -0.388 OA
HETATM   23  H10 UNK   900      19.788 -63.727 -73.165  1.00  0.00     0.210 HD
ENDBRANCH   4  22
BRANCH   5  24
HETATM   24  C6  UNK   900      15.776 -63.255 -73.125  1.00  0.00     0.198 C 
BRANCH  24  25
HETATM   25  O6  UNK   900      15.408 -62.245 -74.047  1.00  0.00    -0.398 OA
HETATM   26  H11 UNK   900      14.836 -61.618 -73.573  1.00  0.00     0.209 HD
ENDBRANCH  24  25
ENDBRANCH   5  24
BRANCH   2  27
HETATM   27  O3  UNK   900      18.669 -60.494 -71.223  1.00  0.00    -0.390 OA
HETATM   28  H8  UNK   900      19.352 -59.805 -71.156  1.00  0.00     0.210 HD
ENDBRANCH   2  27
BRANCH   3  29
HETATM   29  O4  UNK   900      18.307 -62.462 -74.253  1.00  0.00    -0.390 OA
HETATM   30  H9  UNK   900      19.042 -61.939 -74.616  1.00  0.00     0.210 HD
ENDBRANCH   3  29
TORSDOF 8
ENDMDL
