MODEL 1
REMARK VINA RESULT:      -6.9      0.000      0.000
REMARK  5 active torsions:
REMARK  status: ('A' for Active; 'I' for Inactive)
REMARK    1  A    between atoms: O5_5  and  C18_25 
REMARK       I    between atoms: N1_6  and  C7_14 
REMARK       I    between atoms: N2_7  and  C8_15 
REMARK    2  A    between atoms: C1_8  and  C5_12 
REMARK    3  A    between atoms: C2_9  and  C6_13 
REMARK    4  A    between atoms: C5_12  and  C9_16 
REMARK    5  A    between atoms: C6_13  and  C10_17 
ROOT
HETATM    1  O1  UNK   900      11.008 -26.946 -72.243  1.00  0.00    -0.274 OA
HETATM    2  O2  UNK   900       8.190 -32.344 -74.100  1.00  0.00    -0.274 OA
HETATM    3  N1  UNK   900      11.072 -28.802 -73.638  1.00  0.00    -0.344 N 
HETATM    4  N2  UNK   900      10.122 -31.320 -73.313  1.00  0.00    -0.344 N 
HETATM    5  C1  UNK   900      10.686 -29.507 -74.883  1.00  0.00     0.109 C 
HETATM    6  C2  UNK   900      10.961 -30.804 -72.206  1.00  0.00     0.109 C 
HETATM    7  C3  UNK   900      10.623 -31.032 -74.658  1.00  0.00     0.152 C 
HETATM    8  C4  UNK   900      11.820 -29.611 -72.675  1.00  0.00     0.152 C 
HETATM    9  C7  UNK   900      10.724 -27.490 -73.313  1.00  0.00     0.216 C 
HETATM   10  C8  UNK   900       8.900 -31.976 -73.159  1.00  0.00     0.216 C 
HETATM   11  C11 UNK   900       9.927 -26.723 -74.338  1.00  0.00     0.117 C 
HETATM   12  C12 UNK   900       8.427 -32.213 -71.746  1.00  0.00     0.117 C 
ENDROOT
BRANCH   5  13
HETATM   13  C5  UNK   900      11.662 -29.196 -76.020  1.00  0.00     0.065 C 
BRANCH  13  14
HETATM   14  C9  UNK   900      10.935 -28.797 -77.271  1.00  0.00    -0.051 A 
HETATM   15  C13 UNK   900      11.657 -28.360 -78.385  1.00  0.00     0.047 A 
HETATM   16  C17 UNK   900      10.945 -28.005 -79.511  1.00  0.00     0.108 A 
HETATM   17  O3  UNK   900      11.475 -27.559 -80.683  1.00  0.00    -0.323 OA
HETATM   18  C19 UNK   900       9.571 -28.075 -79.552  1.00  0.00     0.138 A 
HETATM   19  C23 UNK   900      10.281 -27.355 -81.465  1.00  0.00     0.352 A 
HETATM   20  O4  UNK   900       9.069 -27.680 -80.753  1.00  0.00    -0.320 OA
HETATM   21  C18 UNK   900       8.834 -28.502 -78.467  1.00  0.00     0.104 A 
HETATM   22  C14 UNK   900       9.531 -28.867 -77.312  1.00  0.00     0.047 A 
BRANCH  21  23
HETATM   23  O5  UNK   900       7.480 -28.568 -78.509  1.00  0.00    -0.353 OA
HETATM   24  C24 UNK   900       6.894 -29.858 -78.691  1.00  0.00     0.210 C 
ENDBRANCH  21  23
ENDBRANCH  13  14
ENDBRANCH   5  13
BRANCH   6  25
HETATM   25  C6  UNK   900      11.869 -31.900 -71.644  1.00  0.00     0.065 C 
BRANCH  25  26
HETATM   26  C10 UNK   900      11.478 -32.270 -70.243  1.00  0.00    -0.056 A 
HETATM   27  C15 UNK   900      11.203 -33.600 -69.922  1.00  0.00     0.007 A 
HETATM   28  C20 UNK   900      10.839 -33.942 -68.620  1.00  0.00     0.001 A 
HETATM   29  C22 UNK   900      10.750 -32.955 -67.638  1.00  0.00     0.000 A 
HETATM   30  C21 UNK   900      11.025 -31.626 -67.959  1.00  0.00     0.001 A 
HETATM   31  C16 UNK   900      11.389 -31.283 -69.260  1.00  0.00     0.007 A 
ENDBRANCH  25  26
ENDBRANCH   6  25
TORSDOF 5
ENDMDL
MODEL 2
REMARK VINA RESULT:      -6.4     43.105     47.292
REMARK  5 active torsions:
REMARK  status: ('A' for Active; 'I' for Inactive)
REMARK    1  A    between atoms: O5_5  and  C18_25 
REMARK       I    between atoms: N1_6  and  C7_14 
REMARK       I    between atoms: N2_7  and  C8_15 
REMARK    2  A    between atoms: C1_8  and  C5_12 
REMARK    3  A    between atoms: C2_9  and  C6_13 
REMARK    4  A    between atoms: C5_12  and  C9_16 
REMARK    5  A    between atoms: C6_13  and  C10_17 
ROOT
HETATM    1  O1  UNK   900       3.229 -73.447 -50.127  1.00  0.00    -0.274 OA
HETATM    2  O2  UNK   900       1.114 -68.266 -53.162  1.00  0.00    -0.274 OA
HETATM    3  N1  UNK   900       3.653 -71.806 -51.715  1.00  0.00    -0.344 N 
HETATM    4  N2  UNK   900       1.987 -70.412 -53.338  1.00  0.00    -0.344 N 
HETATM    5  C1  UNK   900       4.112 -70.447 -52.091  1.00  0.00     0.109 C 
HETATM    6  C2  UNK   900       1.822 -71.885 -53.363  1.00  0.00     0.109 C 
HETATM    7  C3  UNK   900       3.373 -69.943 -53.348  1.00  0.00     0.152 C 
HETATM    8  C4  UNK   900       3.078 -72.590 -52.809  1.00  0.00     0.152 C 
HETATM    9  C7  UNK   900       3.673 -72.335 -50.425  1.00  0.00     0.216 C 
HETATM   10  C8  UNK   900       0.947 -69.486 -53.241  1.00  0.00     0.216 C 
HETATM   11  C11 UNK   900       4.251 -71.461 -49.339  1.00  0.00     0.117 C 
HETATM   12  C12 UNK   900      -0.456 -70.040 -53.203  1.00  0.00     0.117 C 
ENDROOT
BRANCH   5  13
HETATM   13  C5  UNK   900       5.622 -70.423 -52.338  1.00  0.00     0.065 C 
BRANCH  13  14
HETATM   14  C9  UNK   900       6.261 -69.221 -51.705  1.00  0.00    -0.051 A 
HETATM   15  C13 UNK   900       7.355 -69.384 -50.852  1.00  0.00     0.047 A 
HETATM   16  C17 UNK   900       7.908 -68.250 -50.295  1.00  0.00     0.108 A 
HETATM   17  O3  UNK   900       8.971 -68.215 -49.446  1.00  0.00    -0.323 OA
HETATM   18  C19 UNK   900       7.410 -66.995 -50.562  1.00  0.00     0.138 A 
HETATM   19  C23 UNK   900       9.086 -66.797 -49.208  1.00  0.00     0.352 A 
HETATM   20  O4  UNK   900       8.098 -66.017 -49.913  1.00  0.00    -0.320 OA
HETATM   21  C18 UNK   900       6.330 -66.806 -51.400  1.00  0.00     0.104 A 
HETATM   22  C14 UNK   900       5.751 -67.939 -51.977  1.00  0.00     0.047 A 
BRANCH  21  23
HETATM   23  O5  UNK   900       5.841 -65.568 -51.660  1.00  0.00    -0.353 OA
HETATM   24  C24 UNK   900       4.438 -65.458 -51.908  1.00  0.00     0.210 C 
ENDBRANCH  21  23
ENDBRANCH  13  14
ENDBRANCH   5  13
BRANCH   6  25
HETATM   25  C6  UNK   900       1.536 -72.385 -54.781  1.00  0.00     0.065 C 
BRANCH  25  26
HETATM   26  C10 UNK   900       1.150 -73.836 -54.782  1.00  0.00    -0.056 A 
HETATM   27  C15 UNK   900       1.891 -74.755 -55.526  1.00  0.00     0.007 A 
HETATM   28  C20 UNK   900       1.531 -76.102 -55.527  1.00  0.00     0.001 A 
HETATM   29  C22 UNK   900       0.430 -76.531 -54.786  1.00  0.00     0.000 A 
HETATM   30  C21 UNK   900      -0.311 -75.612 -54.043  1.00  0.00     0.001 A 
HETATM   31  C16 UNK   900       0.049 -74.265 -54.041  1.00  0.00     0.007 A 
ENDBRANCH  25  26
ENDBRANCH   6  25
TORSDOF 5
ENDMDL
MODEL 3
REMARK VINA RESULT:      -6.3     26.236     29.089
REMARK  5 active torsions:
REMARK  status: ('A' for Active; 'I' for Inactive)
REMARK    1  A    between atoms: O5_5  and  C18_25 
REMARK       I    between atoms: N1_6  and  C7_14 
REMARK       I    between atoms: N2_7  and  C8_15 
REMARK    2  A    between atoms: C1_8  and  C5_12 
REMARK    3  A    between atoms: C2_9  and  C6_13 
REMARK    4  A    between atoms: C5_12  and  C9_16 
REMARK    5  A    between atoms: C6_13  and  C10_17 
ROOT
HETATM    1  O1  UNK   900      25.291 -42.615 -97.067  1.00  0.00    -0.274 OA
HETATM    2  O2  UNK   900      29.602 -44.786 -92.916  1.00  0.00    -0.274 OA
HETATM    3  N1  UNK   900      26.008 -42.695 -94.859  1.00  0.00    -0.344 N 
HETATM    4  N2  UNK   900      27.356 -44.602 -93.482  1.00  0.00    -0.344 N 
HETATM    5  C1  UNK   900      26.859 -42.203 -93.749  1.00  0.00     0.109 C 
HETATM    6  C2  UNK   900      26.158 -45.070 -94.219  1.00  0.00     0.109 C 
HETATM    7  C3  UNK   900      27.187 -43.341 -92.759  1.00  0.00     0.152 C 
HETATM    8  C4  UNK   900      25.221 -43.890 -94.553  1.00  0.00     0.152 C 
HETATM    9  C7  UNK   900      25.964 -42.150 -96.143  1.00  0.00     0.216 C 
HETATM   10  C8  UNK   900      28.603 -45.228 -93.490  1.00  0.00     0.216 C 
HETATM   11  C11 UNK   900      26.823 -40.937 -96.397  1.00  0.00     0.117 C 
HETATM   12  C12 UNK   900      28.716 -46.508 -94.281  1.00  0.00     0.117 C 
ENDROOT
BRANCH   5  13
HETATM   13  C5  UNK   900      26.183 -41.051 -93.002  1.00  0.00     0.065 C 
BRANCH  13  14
HETATM   14  C9  UNK   900      26.806 -39.732 -93.352  1.00  0.00    -0.051 A 
HETATM   15  C13 UNK   900      28.197 -39.599 -93.354  1.00  0.00     0.047 A 
HETATM   16  C17 UNK   900      28.722 -38.367 -93.683  1.00  0.00     0.108 A 
HETATM   17  O3  UNK   900      30.045 -38.052 -93.737  1.00  0.00    -0.323 OA
HETATM   18  C19 UNK   900      27.917 -37.297 -94.001  1.00  0.00     0.138 A 
HETATM   19  C23 UNK   900      29.983 -36.664 -94.124  1.00  0.00     0.352 A 
HETATM   20  O4  UNK   900      28.635 -36.179 -94.292  1.00  0.00    -0.320 OA
HETATM   21  C18 UNK   900      26.541 -37.400 -94.006  1.00  0.00     0.104 A 
HETATM   22  C14 UNK   900      25.983 -38.638 -93.676  1.00  0.00     0.047 A 
BRANCH  21  23
HETATM   23  O5  UNK   900      25.751 -36.344 -94.318  1.00  0.00    -0.353 OA
HETATM   24  C24 UNK   900      24.925 -35.814 -93.278  1.00  0.00     0.210 C 
ENDBRANCH  21  23
ENDBRANCH  13  14
ENDBRANCH   5  13
BRANCH   6  25
HETATM   25  C6  UNK   900      25.391 -46.122 -93.415  1.00  0.00     0.065 C 
BRANCH  25  26
HETATM   26  C10 UNK   900      24.983 -47.280 -94.279  1.00  0.00    -0.056 A 
HETATM   27  C15 UNK   900      24.600 -48.487 -93.693  1.00  0.00     0.007 A 
HETATM   28  C20 UNK   900      24.221 -49.562 -94.496  1.00  0.00     0.001 A 
HETATM   29  C22 UNK   900      24.226 -49.432 -95.885  1.00  0.00     0.000 A 
HETATM   30  C21 UNK   900      24.609 -48.225 -96.470  1.00  0.00     0.001 A 
HETATM   31  C16 UNK   900      24.987 -47.149 -95.668  1.00  0.00     0.007 A 
ENDBRANCH  25  26
ENDBRANCH   6  25
TORSDOF 5
ENDMDL
MODEL 4
REMARK VINA RESULT:      -6.0     43.868     46.811
REMARK  5 active torsions:
REMARK  status: ('A' for Active; 'I' for Inactive)
REMARK    1  A    between atoms: O5_5  and  C18_25 
REMARK       I    between atoms: N1_6  and  C7_14 
REMARK       I    between atoms: N2_7  and  C8_15 
REMARK    2  A    between atoms: C1_8  and  C5_12 
REMARK    3  A    between atoms: C2_9  and  C6_13 
REMARK    4  A    between atoms: C5_12  and  C9_16 
REMARK    5  A    between atoms: C6_13  and  C10_17 
ROOT
HETATM    1  O1  UNK   900       1.917 -70.139 -48.124  1.00  0.00    -0.274 OA
HETATM    2  O2  UNK   900       2.348 -70.309 -54.474  1.00  0.00    -0.274 OA
HETATM    3  N1  UNK   900       2.715 -69.123 -50.055  1.00  0.00    -0.344 N 
HETATM    4  N2  UNK   900       3.469 -70.160 -52.444  1.00  0.00    -0.344 N 
HETATM    5  C1  UNK   900       2.533 -68.233 -51.227  1.00  0.00     0.109 C 
HETATM    6  C2  UNK   900       4.086 -70.785 -51.250  1.00  0.00     0.109 C 
HETATM    7  C3  UNK   900       3.402 -68.698 -52.414  1.00  0.00     0.152 C 
HETATM    8  C4  UNK   900       3.982 -69.854 -50.024  1.00  0.00     0.152 C 
HETATM    9  C7  UNK   900       1.765 -69.347 -49.058  1.00  0.00     0.216 C 
HETATM   10  C8  UNK   900       2.910 -70.853 -53.519  1.00  0.00     0.216 C 
HETATM   11  C11 UNK   900       0.469 -68.582 -49.168  1.00  0.00     0.117 C 
HETATM   12  C12 UNK   900       2.985 -72.359 -53.471  1.00  0.00     0.117 C 
ENDROOT
BRANCH   5  13
HETATM   13  C5  UNK   900       2.875 -66.783 -50.877  1.00  0.00     0.065 C 
BRANCH  13  14
HETATM   14  C9  UNK   900       4.327 -66.632 -50.527  1.00  0.00    -0.051 A 
HETATM   15  C13 UNK   900       5.297 -66.735 -51.527  1.00  0.00     0.047 A 
HETATM   16  C17 UNK   900       6.618 -66.589 -51.156  1.00  0.00     0.108 A 
HETATM   17  O3  UNK   900       7.693 -66.658 -51.987  1.00  0.00    -0.323 OA
HETATM   18  C19 UNK   900       6.981 -66.349 -49.850  1.00  0.00     0.138 A 
HETATM   19  C23 UNK   900       8.774 -66.435 -51.059  1.00  0.00     0.352 A 
HETATM   20  O4  UNK   900       8.329 -66.238 -49.701  1.00  0.00    -0.320 OA
HETATM   21  C18 UNK   900       6.044 -66.243 -48.843  1.00  0.00     0.104 A 
HETATM   22  C14 UNK   900       4.699 -66.388 -49.193  1.00  0.00     0.047 A 
BRANCH  21  23
HETATM   23  O5  UNK   900       6.405 -66.008 -47.558  1.00  0.00    -0.353 OA
HETATM   24  C24 UNK   900       6.072 -67.006 -46.591  1.00  0.00     0.210 C 
ENDBRANCH  21  23
ENDBRANCH  13  14
ENDBRANCH   5  13
BRANCH   6  25
HETATM   25  C6  UNK   900       5.554 -71.134 -51.506  1.00  0.00     0.065 C 
BRANCH  25  26
HETATM   26  C10 UNK   900       5.942 -72.408 -50.813  1.00  0.00    -0.056 A 
HETATM   27  C15 UNK   900       7.257 -72.600 -50.389  1.00  0.00     0.007 A 
HETATM   28  C20 UNK   900       7.618 -73.784 -49.747  1.00  0.00     0.001 A 
HETATM   29  C22 UNK   900       6.663 -74.777 -49.528  1.00  0.00     0.000 A 
HETATM   30  C21 UNK   900       5.348 -74.586 -49.952  1.00  0.00     0.001 A 
HETATM   31  C16 UNK   900       4.988 -73.402 -50.595  1.00  0.00     0.007 A 
ENDBRANCH  25  26
ENDBRANCH   6  25
TORSDOF 5
ENDMDL
MODEL 5
REMARK VINA RESULT:      -6.0     19.882     23.508
REMARK  5 active torsions:
REMARK  status: ('A' for Active; 'I' for Inactive)
REMARK    1  A    between atoms: O5_5  and  C18_25 
REMARK       I    between atoms: N1_6  and  C7_14 
REMARK       I    between atoms: N2_7  and  C8_15 
REMARK    2  A    between atoms: C1_8  and  C5_12 
REMARK    3  A    between atoms: C2_9  and  C6_13 
REMARK    4  A    between atoms: C5_12  and  C9_16 
REMARK    5  A    between atoms: C6_13  and  C10_17 
ROOT
HETATM    1  O1  UNK   900       4.400 -51.709 -71.985  1.00  0.00    -0.274 OA
HETATM    2  O2  UNK   900      10.748 -51.338 -71.682  1.00  0.00    -0.274 OA
HETATM    3  N1  UNK   900       6.433 -52.154 -73.017  1.00  0.00    -0.344 N 
HETATM    4  N2  UNK   900       8.821 -50.876 -72.894  1.00  0.00    -0.344 N 
HETATM    5  C1  UNK   900       7.628 -53.007 -73.223  1.00  0.00     0.109 C 
HETATM    6  C2  UNK   900       7.650 -50.019 -73.198  1.00  0.00     0.109 C 
HETATM    7  C3  UNK   900       8.856 -52.154 -73.606  1.00  0.00     0.152 C 
HETATM    8  C4  UNK   900       6.465 -50.866 -73.709  1.00  0.00     0.152 C 
HETATM    9  C7  UNK   900       5.356 -52.463 -72.185  1.00  0.00     0.216 C 
HETATM   10  C8  UNK   900       9.815 -50.581 -71.960  1.00  0.00     0.216 C 
HETATM   11  C11 UNK   900       5.402 -53.795 -71.478  1.00  0.00     0.117 C 
HETATM   12  C12 UNK   900       9.701 -49.260 -71.239  1.00  0.00     0.117 C 
ENDROOT
BRANCH   5  13
HETATM   13  C5  UNK   900       7.376 -54.060 -74.304  1.00  0.00     0.065 C 
BRANCH  13  14
HETATM   14  C9  UNK   900       8.579 -54.935 -74.507  1.00  0.00    -0.051 A 
HETATM   15  C13 UNK   900       9.060 -55.711 -73.450  1.00  0.00     0.047 A 
HETATM   16  C17 UNK   900      10.167 -56.499 -73.685  1.00  0.00     0.108 A 
HETATM   17  O3  UNK   900      10.772 -57.316 -72.781  1.00  0.00    -0.323 OA
HETATM   18  C19 UNK   900      10.787 -56.529 -74.914  1.00  0.00     0.138 A 
HETATM   19  C23 UNK   900      11.843 -57.864 -73.578  1.00  0.00     0.352 A 
HETATM   20  O4  UNK   900      11.858 -57.369 -74.932  1.00  0.00    -0.320 OA
HETATM   21  C18 UNK   900      10.333 -55.772 -75.974  1.00  0.00     0.104 A 
HETATM   22  C14 UNK   900       9.213 -54.965 -75.762  1.00  0.00     0.047 A 
BRANCH  21  23
HETATM   23  O5  UNK   900      10.946 -55.804 -77.183  1.00  0.00    -0.353 OA
HETATM   24  C24 UNK   900      11.917 -54.789 -77.451  1.00  0.00     0.210 C 
ENDBRANCH  21  23
ENDBRANCH  13  14
ENDBRANCH   5  13
BRANCH   6  25
HETATM   25  C6  UNK   900       8.002 -48.950 -74.235  1.00  0.00     0.065 C 
BRANCH  25  26
HETATM   26  C10 UNK   900       7.381 -47.628 -73.890  1.00  0.00    -0.056 A 
HETATM   27  C15 UNK   900       7.107 -47.311 -72.559  1.00  0.00     0.007 A 
HETATM   28  C20 UNK   900       6.529 -46.083 -72.240  1.00  0.00     0.001 A 
HETATM   29  C22 UNK   900       6.225 -45.170 -73.251  1.00  0.00     0.000 A 
HETATM   30  C21 UNK   900       6.499 -45.487 -74.581  1.00  0.00     0.001 A 
HETATM   31  C16 UNK   900       7.077 -46.715 -74.901  1.00  0.00     0.007 A 
ENDBRANCH  25  26
ENDBRANCH   6  25
TORSDOF 5
ENDMDL
MODEL 6
REMARK VINA RESULT:      -6.0     32.751     36.926
REMARK  5 active torsions:
REMARK  status: ('A' for Active; 'I' for Inactive)
REMARK    1  A    between atoms: O5_5  and  C18_25 
REMARK       I    between atoms: N1_6  and  C7_14 
REMARK       I    between atoms: N2_7  and  C8_15 
REMARK    2  A    between atoms: C1_8  and  C5_12 
REMARK    3  A    between atoms: C2_9  and  C6_13 
REMARK    4  A    between atoms: C5_12  and  C9_16 
REMARK    5  A    between atoms: C6_13  and  C10_17 
ROOT
HETATM    1  O1  UNK   900      18.727 -67.048 -72.788  1.00  0.00    -0.274 OA
HETATM    2  O2  UNK   900      17.129 -61.338 -70.470  1.00  0.00    -0.274 OA
HETATM    3  N1  UNK   900      19.258 -65.310 -71.341  1.00  0.00    -0.344 N 
HETATM    4  N2  UNK   900      18.760 -62.648 -71.481  1.00  0.00    -0.344 N 
HETATM    5  C1  UNK   900      19.123 -64.613 -70.040  1.00  0.00     0.109 C 
HETATM    6  C2  UNK   900      19.386 -63.247 -72.684  1.00  0.00     0.109 C 
HETATM    7  C3  UNK   900      19.320 -63.092 -70.204  1.00  0.00     0.152 C 
HETATM    8  C4  UNK   900      20.051 -64.598 -72.345  1.00  0.00     0.152 C 
HETATM    9  C7  UNK   900      18.647 -66.518 -71.677  1.00  0.00     0.216 C 
HETATM   10  C8  UNK   900      17.671 -61.776 -71.489  1.00  0.00     0.216 C 
HETATM   11  C11 UNK   900      17.820 -67.183 -70.605  1.00  0.00     0.117 C 
HETATM   12  C12 UNK   900      17.122 -61.384 -72.839  1.00  0.00     0.117 C 
ENDROOT
BRANCH   5  13
HETATM   13  C5  UNK   900      20.125 -65.154 -69.017  1.00  0.00     0.065 C 
BRANCH  13  14
HETATM   14  C9  UNK   900      19.473 -65.395 -67.687  1.00  0.00    -0.051 A 
HETATM   15  C13 UNK   900      18.088 -65.271 -67.559  1.00  0.00     0.047 A 
HETATM   16  C17 UNK   900      17.535 -65.503 -66.317  1.00  0.00     0.108 A 
HETATM   17  O3  UNK   900      16.213 -65.430 -66.005  1.00  0.00    -0.323 OA
HETATM   18  C19 UNK   900      18.310 -65.845 -65.232  1.00  0.00     0.138 A 
HETATM   19  C23 UNK   900      16.241 -65.763 -64.603  1.00  0.00     0.352 A 
HETATM   20  O4  UNK   900      17.569 -66.027 -64.105  1.00  0.00    -0.320 OA
HETATM   21  C18 UNK   900      19.680 -65.972 -65.330  1.00  0.00     0.104 A 
HETATM   22  C14 UNK   900      20.265 -65.743 -66.578  1.00  0.00     0.047 A 
BRANCH  21  23
HETATM   23  O5  UNK   900      20.440 -66.308 -64.258  1.00  0.00    -0.353 OA
HETATM   24  C24 UNK   900      21.682 -66.967 -64.518  1.00  0.00     0.210 C 
ENDBRANCH  21  23
ENDBRANCH  13  14
ENDBRANCH   5  13
BRANCH   6  25
HETATM   25  C6  UNK   900      20.424 -62.303 -73.293  1.00  0.00     0.065 C 
BRANCH  25  26
HETATM   26  C10 UNK   900      20.420 -62.379 -74.793  1.00  0.00    -0.056 A 
HETATM   27  C15 UNK   900      21.496 -62.956 -75.466  1.00  0.00     0.007 A 
HETATM   28  C20 UNK   900      21.491 -63.026 -76.859  1.00  0.00     0.001 A 
HETATM   29  C22 UNK   900      20.410 -62.517 -77.579  1.00  0.00     0.000 A 
HETATM   30  C21 UNK   900      19.334 -61.940 -76.906  1.00  0.00     0.001 A 
HETATM   31  C16 UNK   900      19.338 -61.870 -75.513  1.00  0.00     0.007 A 
ENDBRANCH  25  26
ENDBRANCH   6  25
TORSDOF 5
ENDMDL
MODEL 7
REMARK VINA RESULT:      -5.9     20.110     23.748
REMARK  5 active torsions:
REMARK  status: ('A' for Active; 'I' for Inactive)
REMARK    1  A    between atoms: O5_5  and  C18_25 
REMARK       I    between atoms: N1_6  and  C7_14 
REMARK       I    between atoms: N2_7  and  C8_15 
REMARK    2  A    between atoms: C1_8  and  C5_12 
REMARK    3  A    between atoms: C2_9  and  C6_13 
REMARK    4  A    between atoms: C5_12  and  C9_16 
REMARK    5  A    between atoms: C6_13  and  C10_17 
ROOT
HETATM    1  O1  UNK   900       4.571 -52.052 -72.018  1.00  0.00    -0.274 OA
HETATM    2  O2  UNK   900      10.888 -51.317 -71.713  1.00  0.00    -0.274 OA
HETATM    3  N1  UNK   900       6.626 -52.370 -73.054  1.00  0.00    -0.344 N 
HETATM    4  N2  UNK   900       8.936 -50.956 -72.921  1.00  0.00    -0.344 N 
HETATM    5  C1  UNK   900       7.868 -53.150 -73.267  1.00  0.00     0.109 C 
HETATM    6  C2  UNK   900       7.717 -50.166 -73.217  1.00  0.00     0.109 C 
HETATM    7  C3  UNK   900       9.044 -52.224 -73.644  1.00  0.00     0.152 C 
HETATM    8  C4  UNK   900       6.583 -51.075 -73.735  1.00  0.00     0.152 C 
HETATM    9  C7  UNK   900       5.569 -52.747 -72.225  1.00  0.00     0.216 C 
HETATM   10  C8  UNK   900       9.912 -50.612 -71.985  1.00  0.00     0.216 C 
HETATM   11  C11 UNK   900       5.693 -54.080 -71.529  1.00  0.00     0.117 C 
HETATM   12  C12 UNK   900       9.722 -49.306 -71.253  1.00  0.00     0.117 C 
ENDROOT
BRANCH   5  13
HETATM   13  C5  UNK   900       7.677 -54.206 -74.357  1.00  0.00     0.065 C 
BRANCH  13  14
HETATM   14  C9  UNK   900       8.874 -55.106 -74.464  1.00  0.00    -0.051 A 
HETATM   15  C13 UNK   900       9.600 -55.156 -75.657  1.00  0.00     0.047 A 
HETATM   16  C17 UNK   900      10.692 -55.997 -75.706  1.00  0.00     0.108 A 
HETATM   17  O3  UNK   900      11.514 -56.176 -76.776  1.00  0.00    -0.323 OA
HETATM   18  C19 UNK   900      11.066 -56.764 -74.626  1.00  0.00     0.138 A 
HETATM   19  C23 UNK   900      12.446 -57.143 -76.250  1.00  0.00     0.352 A 
HETATM   20  O4  UNK   900      12.167 -57.521 -74.886  1.00  0.00    -0.320 OA
HETATM   21  C18 UNK   900      10.366 -56.734 -73.438  1.00  0.00     0.104 A 
HETATM   22  C14 UNK   900       9.255 -55.890 -73.361  1.00  0.00     0.047 A 
BRANCH  21  23
HETATM   23  O5  UNK   900      10.736 -57.492 -72.376  1.00  0.00    -0.353 OA
HETATM   24  C24 UNK   900      10.143 -58.787 -72.259  1.00  0.00     0.210 C 
ENDBRANCH  21  23
ENDBRANCH  13  14
ENDBRANCH   5  13
BRANCH   6  25
HETATM   25  C6  UNK   900       8.006 -49.070 -74.245  1.00  0.00     0.065 C 
BRANCH  25  26
HETATM   26  C10 UNK   900       7.394 -47.761 -73.836  1.00  0.00    -0.056 A 
HETATM   27  C15 UNK   900       7.123 -46.787 -74.797  1.00  0.00     0.007 A 
HETATM   28  C20 UNK   900       6.555 -45.571 -74.416  1.00  0.00     0.001 A 
HETATM   29  C22 UNK   900       6.258 -45.329 -73.075  1.00  0.00     0.000 A 
HETATM   30  C21 UNK   900       6.529 -46.304 -72.114  1.00  0.00     0.001 A 
HETATM   31  C16 UNK   900       7.097 -47.519 -72.494  1.00  0.00     0.007 A 
ENDBRANCH  25  26
ENDBRANCH   6  25
TORSDOF 5
ENDMDL
MODEL 8
REMARK VINA RESULT:      -5.9     34.113     36.439
REMARK  5 active torsions:
REMARK  status: ('A' for Active; 'I' for Inactive)
REMARK    1  A    between atoms: O5_5  and  C18_25 
REMARK       I    between atoms: N1_6  and  C7_14 
REMARK       I    between atoms: N2_7  and  C8_15 
REMARK    2  A    between atoms: C1_8  and  C5_12 
REMARK    3  A    between atoms: C2_9  and  C6_13 
REMARK    4  A    between atoms: C5_12  and  C9_16 
REMARK    5  A    between atoms: C6_13  and  C10_17 
ROOT
HETATM    1  O1  UNK   900      28.396 -62.982 -76.355  1.00  0.00    -0.274 OA
HETATM    2  O2  UNK   900      26.380 -59.439 -71.466  1.00  0.00    -0.274 OA
HETATM    3  N1  UNK   900      27.099 -62.867 -74.432  1.00  0.00    -0.344 N 
HETATM    4  N2  UNK   900      27.388 -61.413 -72.161  1.00  0.00    -0.344 N 
HETATM    5  C1  UNK   900      25.841 -62.516 -73.730  1.00  0.00     0.109 C 
HETATM    6  C2  UNK   900      28.580 -62.186 -72.584  1.00  0.00     0.109 C 
HETATM    7  C3  UNK   900      26.116 -62.130 -72.262  1.00  0.00     0.152 C 
HETATM    8  C4  UNK   900      28.188 -63.313 -73.562  1.00  0.00     0.152 C 
HETATM    9  C7  UNK   900      27.319 -62.740 -75.803  1.00  0.00     0.216 C 
HETATM   10  C8  UNK   900      27.395 -60.078 -71.756  1.00  0.00     0.216 C 
HETATM   11  C11 UNK   900      26.162 -62.246 -76.636  1.00  0.00     0.117 C 
HETATM   12  C12 UNK   900      28.737 -59.390 -71.704  1.00  0.00     0.117 C 
ENDROOT
BRANCH   5  13
HETATM   13  C5  UNK   900      24.840 -63.673 -73.778  1.00  0.00     0.065 C 
BRANCH  13  14
HETATM   14  C9  UNK   900      23.495 -63.213 -74.260  1.00  0.00    -0.051 A 
HETATM   15  C13 UNK   900      23.128 -63.415 -75.592  1.00  0.00     0.047 A 
HETATM   16  C17 UNK   900      21.881 -62.975 -75.987  1.00  0.00     0.108 A 
HETATM   17  O3  UNK   900      21.355 -63.085 -77.238  1.00  0.00    -0.323 OA
HETATM   18  C19 UNK   900      21.019 -62.359 -75.110  1.00  0.00     0.138 A 
HETATM   19  C23 UNK   900      20.065 -62.468 -77.049  1.00  0.00     0.352 A 
HETATM   20  O4  UNK   900      19.846 -62.004 -75.701  1.00  0.00    -0.320 OA
HETATM   21  C18 UNK   900      21.357 -62.146 -73.789  1.00  0.00     0.104 A 
HETATM   22  C14 UNK   900      22.614 -62.582 -73.363  1.00  0.00     0.047 A 
BRANCH  21  23
HETATM   23  O5  UNK   900      20.505 -61.537 -72.927  1.00  0.00    -0.353 OA
HETATM   24  C24 UNK   900      19.906 -62.350 -71.916  1.00  0.00     0.210 C 
ENDBRANCH  21  23
ENDBRANCH  13  14
ENDBRANCH   5  13
BRANCH   6  25
HETATM   25  C6  UNK   900      29.306 -62.784 -71.377  1.00  0.00     0.065 C 
BRANCH  25  26
HETATM   26  C10 UNK   900      30.786 -62.539 -71.452  1.00  0.00    -0.056 A 
HETATM   27  C15 UNK   900      31.566 -62.620 -70.299  1.00  0.00     0.007 A 
HETATM   28  C20 UNK   900      32.940 -62.391 -70.369  1.00  0.00     0.001 A 
HETATM   29  C22 UNK   900      33.534 -62.081 -71.592  1.00  0.00     0.000 A 
HETATM   30  C21 UNK   900      32.754 -62.000 -72.746  1.00  0.00     0.001 A 
HETATM   31  C16 UNK   900      31.380 -62.229 -72.675  1.00  0.00     0.007 A 
ENDBRANCH  25  26
ENDBRANCH   6  25
TORSDOF 5
ENDMDL
MODEL 9
REMARK VINA RESULT:      -5.8     27.225     29.502
REMARK  5 active torsions:
REMARK  status: ('A' for Active; 'I' for Inactive)
REMARK    1  A    between atoms: O5_5  and  C18_25 
REMARK       I    between atoms: N1_6  and  C7_14 
REMARK       I    between atoms: N2_7  and  C8_15 
REMARK    2  A    between atoms: C1_8  and  C5_12 
REMARK    3  A    between atoms: C2_9  and  C6_13 
REMARK    4  A    between atoms: C5_12  and  C9_16 
REMARK    5  A    between atoms: C6_13  and  C10_17 
ROOT
HETATM    1  O1  UNK   900      26.996 -43.744 -98.579  1.00  0.00    -0.274 OA
HETATM    2  O2  UNK   900      27.663 -43.548 -92.251  1.00  0.00    -0.274 OA
HETATM    3  N1  UNK   900      26.035 -43.221 -96.530  1.00  0.00    -0.344 N 
HETATM    4  N2  UNK   900      26.400 -44.277 -94.060  1.00  0.00    -0.344 N 
HETATM    5  C1  UNK   900      25.814 -42.292 -95.397  1.00  0.00     0.109 C 
HETATM    6  C2  UNK   900      26.116 -45.254 -95.139  1.00  0.00     0.109 C 
HETATM    7  C3  UNK   900      25.576 -43.068 -94.085  1.00  0.00     0.152 C 
HETATM    8  C4  UNK   900      25.468 -44.559 -96.354  1.00  0.00     0.152 C 
HETATM    9  C7  UNK   900      26.777 -42.933 -97.676  1.00  0.00     0.216 C 
HETATM   10  C8  UNK   900      27.408 -44.403 -93.103  1.00  0.00     0.216 C 
HETATM   11  C11 UNK   900      27.358 -41.545 -97.779  1.00  0.00     0.117 C 
HETATM   12  C12 UNK   900      28.241 -45.660 -93.154  1.00  0.00     0.117 C 
ENDROOT
BRANCH   5  13
HETATM   13  C5  UNK   900      24.628 -41.364 -95.667  1.00  0.00     0.065 C 
BRANCH  13  14
HETATM   14  C9  UNK   900      25.026 -39.921 -95.555  1.00  0.00    -0.051 A 
HETATM   15  C13 UNK   900      24.519 -38.988 -96.463  1.00  0.00     0.047 A 
HETATM   16  C17 UNK   900      24.913 -37.674 -96.319  1.00  0.00     0.108 A 
HETATM   17  O3  UNK   900      24.525 -36.633 -97.105  1.00  0.00    -0.323 OA
HETATM   18  C19 UNK   900      25.775 -37.281 -95.319  1.00  0.00     0.138 A 
HETATM   19  C23 UNK   900      25.239 -35.541 -96.489  1.00  0.00     0.352 A 
HETATM   20  O4  UNK   900      26.034 -35.946 -95.356  1.00  0.00    -0.320 OA
HETATM   21  C18 UNK   900      26.290 -38.182 -94.410  1.00  0.00     0.104 A 
HETATM   22  C14 UNK   900      25.907 -39.520 -94.535  1.00  0.00     0.047 A 
BRANCH  21  23
HETATM   23  O5  UNK   900      27.140 -37.792 -93.428  1.00  0.00    -0.353 OA
HETATM   24  C24 UNK   900      28.348 -38.540 -93.273  1.00  0.00     0.210 C 
ENDBRANCH  21  23
ENDBRANCH  13  14
ENDBRANCH   5  13
BRANCH   6  25
HETATM   25  C6  UNK   900      25.203 -46.376 -94.641  1.00  0.00     0.065 C 
BRANCH  25  26
HETATM   26  C10 UNK   900      25.862 -47.718 -94.777  1.00  0.00    -0.056 A 
HETATM   27  C15 UNK   900      25.489 -48.767 -93.936  1.00  0.00     0.007 A 
HETATM   28  C20 UNK   900      26.102 -50.013 -94.062  1.00  0.00     0.001 A 
HETATM   29  C22 UNK   900      27.089 -50.211 -95.028  1.00  0.00     0.000 A 
HETATM   30  C21 UNK   900      27.462 -49.162 -95.868  1.00  0.00     0.001 A 
HETATM   31  C16 UNK   900      26.849 -47.916 -95.743  1.00  0.00     0.007 A 
ENDBRANCH  25  26
ENDBRANCH   6  25
TORSDOF 5
ENDMDL
