MODEL 1
REMARK VINA RESULT:      -6.5      0.000      0.000
REMARK  13 active torsions:
REMARK  status: ('A' for Active; 'I' for Inactive)
REMARK    1  A    between atoms: O3_3  and  C16_25 
REMARK    2  A    between atoms: O3_3  and  C18_27 
REMARK    3  A    between atoms: O5_5  and  C17_26 
REMARK    4  A    between atoms: N3_9  and  C11_20 
REMARK       I    between atoms: N3_9  and  C13_22 
REMARK    5  A    between atoms: C1_10  and  C3_12 
REMARK    6  A    between atoms: C2_11  and  C5_14 
REMARK    7  A    between atoms: C3_12  and  C7_16 
REMARK    8  A    between atoms: C5_14  and  C8_17 
REMARK    9  A    between atoms: C8_17  and  C11_20 
REMARK   10  A    between atoms: C13_22  and  C14_23 
REMARK   11  A    between atoms: C14_23  and  C15_24 
REMARK   12  A    between atoms: C15_24  and  C18_27 
REMARK   13  A    between atoms: C16_25  and  C17_26 
ROOT
HETATM    1  C8  UNK   900      35.323 -45.462 -61.319  1.00  0.00     0.022 C 
ENDROOT
BRANCH   1   2
HETATM    2  C5  UNK   900      34.459 -46.691 -61.029  1.00  0.00     0.037 C 
BRANCH   2   3
HETATM    3  C2  UNK   900      32.979 -46.381 -61.213  1.00  0.00     0.178 C 
HETATM    4  N1  UNK   900      32.402 -47.010 -62.406  1.00  0.00    -0.341 N 
HETATM    5  C4  UNK   900      32.026 -48.357 -62.423  1.00  0.00     0.243 C 
HETATM    6  C10 UNK   900      32.441 -46.246 -63.645  1.00  0.00     0.153 C 
HETATM    7  O1  UNK   900      31.794 -49.000 -63.448  1.00  0.00    -0.271 OA
HETATM    8  C1  UNK   900      32.054 -49.023 -61.053  1.00  0.00     0.180 C 
HETATM    9  N2  UNK   900      31.622 -48.049 -60.067  1.00  0.00    -0.346 N 
HETATM   10  C6  UNK   900      32.160 -46.779 -60.000  1.00  0.00     0.241 C 
HETATM   11  H6  UNK   900      31.105 -48.358 -59.252  1.00  0.00     0.163 HD
HETATM   12  O2  UNK   900      32.073 -46.061 -59.006  1.00  0.00    -0.271 OA
BRANCH   8  13
HETATM   13  C3  UNK   900      31.167 -50.261 -61.013  1.00  0.00     0.013 C 
HETATM   14  C9  UNK   900      29.737 -49.869 -60.628  1.00  0.00     0.012 C 
BRANCH  13  15
HETATM   15  C7  UNK   900      31.685 -51.332 -60.035  1.00  0.00     0.002 C 
HETATM   16  C12 UNK   900      33.193 -51.288 -59.828  1.00  0.00     0.005 C 
ENDBRANCH  13  15
ENDBRANCH   8  13
ENDBRANCH   2   3
ENDBRANCH   1   2
BRANCH   1  17
HETATM   17  C11 UNK   900      34.529 -44.161 -61.257  1.00  0.00     0.122 C 
BRANCH  17  18
HETATM   18  N3  UNK   900      35.023 -43.265 -60.248  1.00  0.00    -0.361 N 
HETATM   19  C13 UNK   900      35.746 -42.109 -60.532  1.00  0.00     0.217 C 
HETATM   20  O4  UNK   900      36.043 -41.725 -61.660  1.00  0.00    -0.274 OA
HETATM   21  H22 UNK   900      34.819 -43.493 -59.279  1.00  0.00     0.162 HD
BRANCH  19  22
HETATM   22  C14 UNK   900      36.132 -41.360 -59.266  1.00  0.00     0.112 C 
BRANCH  22  23
HETATM   23  C15 UNK   900      36.495 -39.899 -59.517  1.00  0.00     0.120 C 
BRANCH  23  24
HETATM   24  C18 UNK   900      36.824 -39.151 -58.241  1.00  0.00     0.259 C 
HETATM   25  O6  UNK   900      37.936 -39.061 -57.743  1.00  0.00    -0.265 OA
BRANCH  24  26
HETATM   26  O3  UNK   900      35.675 -38.606 -57.742  1.00  0.00    -0.314 OA
BRANCH  26  27
HETATM   27  C16 UNK   900      35.514 -38.702 -56.323  1.00  0.00     0.156 C 
HETATM   28  C19 UNK   900      35.154 -40.142 -55.976  1.00  0.00     0.042 C 
BRANCH  27  29
HETATM   29  C17 UNK   900      34.463 -37.695 -55.834  1.00  0.00     0.143 C 
HETATM   30  C20 UNK   900      33.159 -38.370 -55.427  1.00  0.00     0.042 C 
BRANCH  29  31
HETATM   31  O5  UNK   900      34.976 -36.979 -54.712  1.00  0.00    -0.393 OA
HETATM   32  H35 UNK   900      34.335 -37.072 -53.987  1.00  0.00     0.210 HD
ENDBRANCH  29  31
ENDBRANCH  27  29
ENDBRANCH  26  27
ENDBRANCH  24  26
ENDBRANCH  23  24
ENDBRANCH  22  23
ENDBRANCH  19  22
ENDBRANCH  17  18
ENDBRANCH   1  17
TORSDOF 13
ENDMDL
MODEL 2
REMARK VINA RESULT:      -6.0      4.562      7.010
REMARK  13 active torsions:
REMARK  status: ('A' for Active; 'I' for Inactive)
REMARK    1  A    between atoms: O3_3  and  C16_25 
REMARK    2  A    between atoms: O3_3  and  C18_27 
REMARK    3  A    between atoms: O5_5  and  C17_26 
REMARK    4  A    between atoms: N3_9  and  C11_20 
REMARK       I    between atoms: N3_9  and  C13_22 
REMARK    5  A    between atoms: C1_10  and  C3_12 
REMARK    6  A    between atoms: C2_11  and  C5_14 
REMARK    7  A    between atoms: C3_12  and  C7_16 
REMARK    8  A    between atoms: C5_14  and  C8_17 
REMARK    9  A    between atoms: C8_17  and  C11_20 
REMARK   10  A    between atoms: C13_22  and  C14_23 
REMARK   11  A    between atoms: C14_23  and  C15_24 
REMARK   12  A    between atoms: C15_24  and  C18_27 
REMARK   13  A    between atoms: C16_25  and  C17_26 
ROOT
HETATM    1  C8  UNK   900      30.660 -49.747 -61.323  1.00  0.00     0.022 C 
ENDROOT
BRANCH   1   2
HETATM    2  C5  UNK   900      30.755 -49.213 -62.753  1.00  0.00     0.037 C 
BRANCH   2   3
HETATM    3  C2  UNK   900      31.269 -47.779 -62.774  1.00  0.00     0.178 C 
HETATM    4  N1  UNK   900      32.044 -47.462 -63.979  1.00  0.00    -0.341 N 
HETATM    5  C4  UNK   900      31.427 -47.159 -65.196  1.00  0.00     0.243 C 
HETATM    6  C10 UNK   900      33.481 -47.692 -63.924  1.00  0.00     0.153 C 
HETATM    7  O1  UNK   900      32.006 -47.151 -66.284  1.00  0.00    -0.271 OA
HETATM    8  C1  UNK   900      29.919 -46.966 -65.094  1.00  0.00     0.180 C 
HETATM    9  N2  UNK   900      29.632 -46.315 -63.829  1.00  0.00    -0.346 N 
HETATM   10  C6  UNK   900      30.145 -46.770 -62.631  1.00  0.00     0.241 C 
HETATM   11  H6  UNK   900      28.851 -45.672 -63.763  1.00  0.00     0.163 HD
HETATM   12  O2  UNK   900      29.674 -46.468 -61.536  1.00  0.00    -0.271 OA
BRANCH   8  13
HETATM   13  C3  UNK   900      29.378 -46.147 -66.258  1.00  0.00     0.013 C 
HETATM   14  C9  UNK   900      29.525 -44.651 -65.960  1.00  0.00     0.012 C 
BRANCH  13  15
HETATM   15  C7  UNK   900      27.904 -46.463 -66.573  1.00  0.00     0.002 C 
HETATM   16  C12 UNK   900      27.727 -47.513 -67.662  1.00  0.00     0.005 C 
ENDBRANCH  13  15
ENDBRANCH   8  13
ENDBRANCH   2   3
ENDBRANCH   1   2
BRANCH   1  17
HETATM   17  C11 UNK   900      31.700 -50.826 -61.032  1.00  0.00     0.122 C 
BRANCH  17  18
HETATM   18  N3  UNK   900      33.039 -50.388 -61.317  1.00  0.00    -0.361 N 
HETATM   19  C13 UNK   900      33.889 -49.839 -60.361  1.00  0.00     0.217 C 
HETATM   20  O4  UNK   900      33.601 -49.666 -59.180  1.00  0.00    -0.274 OA
HETATM   21  H22 UNK   900      33.375 -50.499 -62.269  1.00  0.00     0.162 HD
BRANCH  19  22
HETATM   22  C14 UNK   900      35.241 -49.473 -60.952  1.00  0.00     0.112 C 
BRANCH  22  23
HETATM   23  C15 UNK   900      35.869 -48.241 -60.307  1.00  0.00     0.120 C 
BRANCH  23  24
HETATM   24  C18 UNK   900      36.065 -47.103 -61.287  1.00  0.00     0.259 C 
HETATM   25  O6  UNK   900      36.636 -47.191 -62.365  1.00  0.00    -0.265 OA
BRANCH  24  26
HETATM   26  O3  UNK   900      35.509 -45.970 -60.764  1.00  0.00    -0.314 OA
BRANCH  26  27
HETATM   27  C16 UNK   900      35.718 -44.775 -61.523  1.00  0.00     0.156 C 
HETATM   28  C19 UNK   900      36.876 -44.005 -60.899  1.00  0.00     0.042 C 
BRANCH  27  29
HETATM   29  C17 UNK   900      34.425 -43.950 -61.589  1.00  0.00     0.143 C 
HETATM   30  C20 UNK   900      33.633 -44.216 -62.863  1.00  0.00     0.042 C 
BRANCH  29  31
HETATM   31  O5  UNK   900      33.602 -44.263 -60.467  1.00  0.00    -0.393 OA
HETATM   32  H35 UNK   900      34.117 -44.076 -59.664  1.00  0.00     0.210 HD
ENDBRANCH  29  31
ENDBRANCH  27  29
ENDBRANCH  26  27
ENDBRANCH  24  26
ENDBRANCH  23  24
ENDBRANCH  22  23
ENDBRANCH  19  22
ENDBRANCH  17  18
ENDBRANCH   1  17
TORSDOF 13
ENDMDL
MODEL 3
REMARK VINA RESULT:      -5.7      6.982     11.199
REMARK  13 active torsions:
REMARK  status: ('A' for Active; 'I' for Inactive)
REMARK    1  A    between atoms: O3_3  and  C16_25 
REMARK    2  A    between atoms: O3_3  and  C18_27 
REMARK    3  A    between atoms: O5_5  and  C17_26 
REMARK    4  A    between atoms: N3_9  and  C11_20 
REMARK       I    between atoms: N3_9  and  C13_22 
REMARK    5  A    between atoms: C1_10  and  C3_12 
REMARK    6  A    between atoms: C2_11  and  C5_14 
REMARK    7  A    between atoms: C3_12  and  C7_16 
REMARK    8  A    between atoms: C5_14  and  C8_17 
REMARK    9  A    between atoms: C8_17  and  C11_20 
REMARK   10  A    between atoms: C13_22  and  C14_23 
REMARK   11  A    between atoms: C14_23  and  C15_24 
REMARK   12  A    between atoms: C15_24  and  C18_27 
REMARK   13  A    between atoms: C16_25  and  C17_26 
ROOT
HETATM    1  C8  UNK   900      31.471 -50.189 -62.145  1.00  0.00     0.022 C 
ENDROOT
BRANCH   1   2
HETATM    2  C5  UNK   900      31.793 -49.401 -63.416  1.00  0.00     0.037 C 
BRANCH   2   3
HETATM    3  C2  UNK   900      31.977 -47.918 -63.116  1.00  0.00     0.178 C 
HETATM    4  N1  UNK   900      33.100 -47.318 -63.843  1.00  0.00    -0.341 N 
HETATM    5  C4  UNK   900      32.994 -46.937 -65.184  1.00  0.00     0.243 C 
HETATM    6  C10 UNK   900      34.401 -47.336 -63.189  1.00  0.00     0.153 C 
HETATM    7  O1  UNK   900      33.955 -46.684 -65.912  1.00  0.00    -0.271 OA
HETATM    8  C1  UNK   900      31.572 -46.988 -65.730  1.00  0.00     0.180 C 
HETATM    9  N2  UNK   900      30.667 -46.578 -64.673  1.00  0.00    -0.346 N 
HETATM   10  C6  UNK   900      30.719 -47.121 -63.405  1.00  0.00     0.241 C 
HETATM   11  H6  UNK   900      29.818 -46.075 -64.907  1.00  0.00     0.163 HD
HETATM   12  O2  UNK   900      29.789 -47.054 -62.603  1.00  0.00    -0.271 OA
BRANCH   8  13
HETATM   13  C3  UNK   900      31.410 -46.098 -66.955  1.00  0.00     0.013 C 
HETATM   14  C9  UNK   900      31.540 -44.625 -66.555  1.00  0.00     0.012 C 
BRANCH  13  15
HETATM   15  C7  UNK   900      30.065 -46.316 -67.675  1.00  0.00     0.002 C 
HETATM   16  C12 UNK   900      30.186 -47.135 -68.953  1.00  0.00     0.005 C 
ENDBRANCH  13  15
ENDBRANCH   8  13
ENDBRANCH   2   3
ENDBRANCH   1   2
BRANCH   1  17
HETATM   17  C11 UNK   900      32.065 -49.547 -60.894  1.00  0.00     0.122 C 
BRANCH  17  18
HETATM   18  N3  UNK   900      32.672 -50.513 -60.019  1.00  0.00    -0.361 N 
HETATM   19  C13 UNK   900      34.010 -50.888 -60.097  1.00  0.00     0.217 C 
HETATM   20  O4  UNK   900      34.818 -50.448 -60.910  1.00  0.00    -0.274 OA
HETATM   21  H22 UNK   900      32.085 -50.928 -59.302  1.00  0.00     0.162 HD
BRANCH  19  22
HETATM   22  C14 UNK   900      34.369 -51.923 -59.042  1.00  0.00     0.112 C 
BRANCH  22  23
HETATM   23  C15 UNK   900      35.008 -53.182 -59.622  1.00  0.00     0.120 C 
BRANCH  23  24
HETATM   24  C18 UNK   900      34.234 -54.438 -59.284  1.00  0.00     0.259 C 
HETATM   25  O6  UNK   900      33.015 -54.525 -59.232  1.00  0.00    -0.265 OA
BRANCH  24  26
HETATM   26  O3  UNK   900      35.120 -55.450 -59.042  1.00  0.00    -0.314 OA
BRANCH  26  27
HETATM   27  C16 UNK   900      36.104 -55.664 -60.058  1.00  0.00     0.156 C 
HETATM   28  C19 UNK   900      35.453 -55.433 -61.416  1.00  0.00     0.042 C 
BRANCH  27  29
HETATM   29  C17 UNK   900      36.716 -57.065 -59.924  1.00  0.00     0.143 C 
HETATM   30  C20 UNK   900      38.239 -57.040 -59.977  1.00  0.00     0.042 C 
BRANCH  29  31
HETATM   31  O5  UNK   900      36.313 -57.645 -58.685  1.00  0.00    -0.393 OA
HETATM   32  H35 UNK   900      35.396 -57.951 -58.789  1.00  0.00     0.210 HD
ENDBRANCH  29  31
ENDBRANCH  27  29
ENDBRANCH  26  27
ENDBRANCH  24  26
ENDBRANCH  23  24
ENDBRANCH  22  23
ENDBRANCH  19  22
ENDBRANCH  17  18
ENDBRANCH   1  17
TORSDOF 13
ENDMDL
MODEL 4
REMARK VINA RESULT:      -5.6      5.302     10.512
REMARK  13 active torsions:
REMARK  status: ('A' for Active; 'I' for Inactive)
REMARK    1  A    between atoms: O3_3  and  C16_25 
REMARK    2  A    between atoms: O3_3  and  C18_27 
REMARK    3  A    between atoms: O5_5  and  C17_26 
REMARK    4  A    between atoms: N3_9  and  C11_20 
REMARK       I    between atoms: N3_9  and  C13_22 
REMARK    5  A    between atoms: C1_10  and  C3_12 
REMARK    6  A    between atoms: C2_11  and  C5_14 
REMARK    7  A    between atoms: C3_12  and  C7_16 
REMARK    8  A    between atoms: C5_14  and  C8_17 
REMARK    9  A    between atoms: C8_17  and  C11_20 
REMARK   10  A    between atoms: C13_22  and  C14_23 
REMARK   11  A    between atoms: C14_23  and  C15_24 
REMARK   12  A    between atoms: C15_24  and  C18_27 
REMARK   13  A    between atoms: C16_25  and  C17_26 
ROOT
HETATM    1  C8  UNK   900      38.525 -39.870 -57.828  1.00  0.00     0.022 C 
ENDROOT
BRANCH   1   2
HETATM    2  C5  UNK   900      37.635 -38.718 -57.357  1.00  0.00     0.037 C 
BRANCH   2   3
HETATM    3  C2  UNK   900      36.177 -38.957 -57.730  1.00  0.00     0.178 C 
HETATM    4  N1  UNK   900      35.244 -38.631 -56.647  1.00  0.00    -0.341 N 
HETATM    5  C4  UNK   900      34.859 -37.315 -56.373  1.00  0.00     0.243 C 
HETATM    6  C10 UNK   900      34.902 -39.701 -55.720  1.00  0.00     0.153 C 
HETATM    7  O1  UNK   900      34.306 -36.957 -55.332  1.00  0.00    -0.271 OA
HETATM    8  C1  UNK   900      35.307 -36.309 -57.426  1.00  0.00     0.180 C 
HETATM    9  N2  UNK   900      35.224 -36.948 -58.726  1.00  0.00    -0.346 N 
HETATM   10  C6  UNK   900      35.776 -38.189 -58.976  1.00  0.00     0.241 C 
HETATM   11  H6  UNK   900      34.985 -36.395 -59.542  1.00  0.00     0.163 HD
HETATM   12  O2  UNK   900      36.019 -38.605 -60.107  1.00  0.00    -0.271 OA
BRANCH   8  13
HETATM   13  C3  UNK   900      34.458 -35.046 -57.390  1.00  0.00     0.013 C 
HETATM   14  C9  UNK   900      33.215 -35.223 -58.268  1.00  0.00     0.012 C 
BRANCH  13  15
HETATM   15  C7  UNK   900      35.233 -33.795 -57.848  1.00  0.00     0.002 C 
HETATM   16  C12 UNK   900      34.333 -32.664 -58.325  1.00  0.00     0.005 C 
ENDBRANCH  13  15
ENDBRANCH   8  13
ENDBRANCH   2   3
ENDBRANCH   1   2
BRANCH   1  17
HETATM   17  C11 UNK   900      37.869 -41.233 -57.628  1.00  0.00     0.122 C 
BRANCH  17  18
HETATM   18  N3  UNK   900      37.992 -42.076 -58.787  1.00  0.00    -0.361 N 
HETATM   19  C13 UNK   900      36.938 -42.345 -59.656  1.00  0.00     0.217 C 
HETATM   20  O4  UNK   900      35.799 -41.903 -59.539  1.00  0.00    -0.274 OA
HETATM   21  H22 UNK   900      38.903 -42.482 -58.975  1.00  0.00     0.162 HD
BRANCH  19  22
HETATM   22  C14 UNK   900      37.365 -43.263 -60.791  1.00  0.00     0.112 C 
BRANCH  22  23
HETATM   23  C15 UNK   900      38.335 -42.605 -61.769  1.00  0.00     0.120 C 
BRANCH  23  24
HETATM   24  C18 UNK   900      37.644 -41.667 -62.735  1.00  0.00     0.259 C 
HETATM   25  O6  UNK   900      37.380 -40.493 -62.514  1.00  0.00    -0.265 OA
BRANCH  24  26
HETATM   26  O3  UNK   900      37.360 -42.348 -63.884  1.00  0.00    -0.314 OA
BRANCH  26  27
HETATM   27  C16 UNK   900      35.969 -42.509 -64.178  1.00  0.00     0.156 C 
HETATM   28  C19 UNK   900      35.661 -44.000 -64.254  1.00  0.00     0.042 C 
BRANCH  27  29
HETATM   29  C17 UNK   900      35.604 -41.763 -65.469  1.00  0.00     0.143 C 
HETATM   30  C20 UNK   900      35.489 -42.699 -66.666  1.00  0.00     0.042 C 
BRANCH  29  31
HETATM   31  O5  UNK   900      34.358 -41.091 -65.295  1.00  0.00    -0.393 OA
HETATM   32  H35 UNK   900      34.333 -40.750 -64.385  1.00  0.00     0.210 HD
ENDBRANCH  29  31
ENDBRANCH  27  29
ENDBRANCH  26  27
ENDBRANCH  24  26
ENDBRANCH  23  24
ENDBRANCH  22  23
ENDBRANCH  19  22
ENDBRANCH  17  18
ENDBRANCH   1  17
TORSDOF 13
ENDMDL
MODEL 5
REMARK VINA RESULT:      -5.5      8.007     11.218
REMARK  13 active torsions:
REMARK  status: ('A' for Active; 'I' for Inactive)
REMARK    1  A    between atoms: O3_3  and  C16_25 
REMARK    2  A    between atoms: O3_3  and  C18_27 
REMARK    3  A    between atoms: O5_5  and  C17_26 
REMARK    4  A    between atoms: N3_9  and  C11_20 
REMARK       I    between atoms: N3_9  and  C13_22 
REMARK    5  A    between atoms: C1_10  and  C3_12 
REMARK    6  A    between atoms: C2_11  and  C5_14 
REMARK    7  A    between atoms: C3_12  and  C7_16 
REMARK    8  A    between atoms: C5_14  and  C8_17 
REMARK    9  A    between atoms: C8_17  and  C11_20 
REMARK   10  A    between atoms: C13_22  and  C14_23 
REMARK   11  A    between atoms: C14_23  and  C15_24 
REMARK   12  A    between atoms: C15_24  and  C18_27 
REMARK   13  A    between atoms: C16_25  and  C17_26 
ROOT
HETATM    1  C8  UNK   900      36.954 -35.514 -59.762  1.00  0.00     0.022 C 
ENDROOT
BRANCH   1   2
HETATM    2  C5  UNK   900      36.710 -36.691 -58.817  1.00  0.00     0.037 C 
BRANCH   2   3
HETATM    3  C2  UNK   900      36.499 -36.216 -57.385  1.00  0.00     0.178 C 
HETATM    4  N1  UNK   900      35.296 -36.778 -56.762  1.00  0.00    -0.341 N 
HETATM    5  C4  UNK   900      35.270 -38.073 -56.236  1.00  0.00     0.243 C 
HETATM    6  C10 UNK   900      34.058 -36.024 -56.909  1.00  0.00     0.153 C 
HETATM    7  O1  UNK   900      34.240 -38.686 -55.952  1.00  0.00    -0.271 OA
HETATM    8  C1  UNK   900      36.639 -38.737 -56.164  1.00  0.00     0.180 C 
HETATM    9  N2  UNK   900      37.619 -37.720 -55.828  1.00  0.00    -0.346 N 
HETATM   10  C6  UNK   900      37.697 -36.519 -56.504  1.00  0.00     0.241 C 
HETATM   11  H6  UNK   900      38.425 -37.967 -55.264  1.00  0.00     0.163 HD
HETATM   12  O2  UNK   900      38.691 -35.794 -56.481  1.00  0.00    -0.271 OA
BRANCH   8  13
HETATM   13  C3  UNK   900      36.662 -39.866 -55.143  1.00  0.00     0.013 C 
HETATM   14  C9  UNK   900      37.965 -39.821 -54.339  1.00  0.00     0.012 C 
BRANCH  13  15
HETATM   15  C7  UNK   900      36.507 -41.256 -55.789  1.00  0.00     0.002 C 
HETATM   16  C12 UNK   900      37.092 -42.384 -54.950  1.00  0.00     0.005 C 
ENDBRANCH  13  15
ENDBRANCH   8  13
ENDBRANCH   2   3
ENDBRANCH   1   2
BRANCH   1  17
HETATM   17  C11 UNK   900      35.722 -34.629 -59.923  1.00  0.00     0.122 C 
BRANCH  17  18
HETATM   18  N3  UNK   900      35.957 -33.277 -59.493  1.00  0.00    -0.361 N 
HETATM   19  C13 UNK   900      34.985 -32.482 -58.891  1.00  0.00     0.217 C 
HETATM   20  O4  UNK   900      33.832 -32.833 -58.661  1.00  0.00    -0.274 OA
HETATM   21  H22 UNK   900      36.888 -32.898 -59.632  1.00  0.00     0.162 HD
BRANCH  19  22
HETATM   22  C14 UNK   900      35.523 -31.103 -58.542  1.00  0.00     0.112 C 
BRANCH  22  23
HETATM   23  C15 UNK   900      35.029 -30.006 -59.481  1.00  0.00     0.120 C 
BRANCH  23  24
HETATM   24  C18 UNK   900      36.097 -29.540 -60.448  1.00  0.00     0.259 C 
HETATM   25  O6  UNK   900      36.547 -28.405 -60.510  1.00  0.00    -0.265 OA
BRANCH  24  26
HETATM   26  O3  UNK   900      36.463 -30.591 -61.240  1.00  0.00    -0.314 OA
BRANCH  26  27
HETATM   27  C16 UNK   900      37.800 -30.545 -61.746  1.00  0.00     0.156 C 
HETATM   28  C19 UNK   900      37.743 -30.189 -63.227  1.00  0.00     0.042 C 
BRANCH  27  29
HETATM   29  C17 UNK   900      38.519 -31.877 -61.484  1.00  0.00     0.143 C 
HETATM   30  C20 UNK   900      39.936 -31.890 -62.045  1.00  0.00     0.042 C 
BRANCH  29  31
HETATM   31  O5  UNK   900      38.582 -32.115 -60.080  1.00  0.00    -0.393 OA
HETATM   32  H35 UNK   900      37.907 -32.781 -59.865  1.00  0.00     0.210 HD
ENDBRANCH  29  31
ENDBRANCH  27  29
ENDBRANCH  26  27
ENDBRANCH  24  26
ENDBRANCH  23  24
ENDBRANCH  22  23
ENDBRANCH  19  22
ENDBRANCH  17  18
ENDBRANCH   1  17
TORSDOF 13
ENDMDL
MODEL 6
REMARK VINA RESULT:      -5.1      8.448     12.805
REMARK  13 active torsions:
REMARK  status: ('A' for Active; 'I' for Inactive)
REMARK    1  A    between atoms: O3_3  and  C16_25 
REMARK    2  A    between atoms: O3_3  and  C18_27 
REMARK    3  A    between atoms: O5_5  and  C17_26 
REMARK    4  A    between atoms: N3_9  and  C11_20 
REMARK       I    between atoms: N3_9  and  C13_22 
REMARK    5  A    between atoms: C1_10  and  C3_12 
REMARK    6  A    between atoms: C2_11  and  C5_14 
REMARK    7  A    between atoms: C3_12  and  C7_16 
REMARK    8  A    between atoms: C5_14  and  C8_17 
REMARK    9  A    between atoms: C8_17  and  C11_20 
REMARK   10  A    between atoms: C13_22  and  C14_23 
REMARK   11  A    between atoms: C14_23  and  C15_24 
REMARK   12  A    between atoms: C15_24  and  C18_27 
REMARK   13  A    between atoms: C16_25  and  C17_26 
ROOT
HETATM    1  C8  UNK   900      36.929 -34.495 -60.524  1.00  0.00     0.022 C 
ENDROOT
BRANCH   1   2
HETATM    2  C5  UNK   900      36.490 -35.606 -59.568  1.00  0.00     0.037 C 
BRANCH   2   3
HETATM    3  C2  UNK   900      36.172 -35.051 -58.185  1.00  0.00     0.178 C 
HETATM    4  N1  UNK   900      34.900 -35.543 -57.646  1.00  0.00    -0.341 N 
HETATM    5  C4  UNK   900      34.784 -36.808 -57.062  1.00  0.00     0.243 C 
HETATM    6  C10 UNK   900      33.707 -34.761 -57.938  1.00  0.00     0.153 C 
HETATM    7  O1  UNK   900      33.713 -37.375 -56.841  1.00  0.00    -0.271 OA
HETATM    8  C1  UNK   900      36.118 -37.509 -56.836  1.00  0.00     0.180 C 
HETATM    9  N2  UNK   900      37.099 -36.505 -56.464  1.00  0.00    -0.346 N 
HETATM   10  C6  UNK   900      37.277 -35.344 -57.188  1.00  0.00     0.241 C 
HETATM   11  H6  UNK   900      37.843 -36.747 -55.820  1.00  0.00     0.163 HD
HETATM   12  O2  UNK   900      38.289 -34.649 -57.112  1.00  0.00    -0.271 OA
BRANCH   8  13
HETATM   13  C3  UNK   900      36.012 -38.584 -55.763  1.00  0.00     0.013 C 
HETATM   14  C9  UNK   900      37.339 -38.703 -55.006  1.00  0.00     0.012 C 
BRANCH  13  15
HETATM   15  C7  UNK   900      35.626 -39.961 -56.337  1.00  0.00     0.002 C 
HETATM   16  C12 UNK   900      36.535 -41.090 -55.870  1.00  0.00     0.005 C 
ENDBRANCH  13  15
ENDBRANCH   8  13
ENDBRANCH   2   3
ENDBRANCH   1   2
BRANCH   1  17
HETATM   17  C11 UNK   900      36.125 -33.211 -60.336  1.00  0.00     0.122 C 
BRANCH  17  18
HETATM   18  N3  UNK   900      36.946 -32.034 -60.413  1.00  0.00    -0.361 N 
HETATM   19  C13 UNK   900      36.483 -30.753 -60.124  1.00  0.00     0.217 C 
HETATM   20  O4  UNK   900      35.338 -30.481 -59.776  1.00  0.00    -0.274 OA
HETATM   21  H22 UNK   900      37.917 -32.157 -60.684  1.00  0.00     0.162 HD
BRANCH  19  22
HETATM   22  C14 UNK   900      37.576 -29.708 -60.288  1.00  0.00     0.112 C 
BRANCH  22  23
HETATM   23  C15 UNK   900      37.382 -28.819 -61.514  1.00  0.00     0.120 C 
BRANCH  23  24
HETATM   24  C18 UNK   900      37.999 -29.406 -62.765  1.00  0.00     0.259 C 
HETATM   25  O6  UNK   900      37.811 -30.542 -63.179  1.00  0.00    -0.265 OA
BRANCH  24  26
HETATM   26  O3  UNK   900      38.800 -28.465 -63.346  1.00  0.00    -0.314 OA
BRANCH  26  27
HETATM   27  C16 UNK   900      39.124 -28.693 -64.721  1.00  0.00     0.156 C 
HETATM   28  C19 UNK   900      40.549 -29.227 -64.798  1.00  0.00     0.042 C 
BRANCH  27  29
HETATM   29  C17 UNK   900      38.927 -27.409 -65.539  1.00  0.00     0.143 C 
HETATM   30  C20 UNK   900      40.200 -26.981 -66.260  1.00  0.00     0.042 C 
BRANCH  29  31
HETATM   31  O5  UNK   900      37.901 -27.614 -66.508  1.00  0.00    -0.393 OA
HETATM   32  H35 UNK   900      38.326 -27.937 -67.320  1.00  0.00     0.210 HD
ENDBRANCH  29  31
ENDBRANCH  27  29
ENDBRANCH  26  27
ENDBRANCH  24  26
ENDBRANCH  23  24
ENDBRANCH  22  23
ENDBRANCH  19  22
ENDBRANCH  17  18
ENDBRANCH   1  17
TORSDOF 13
ENDMDL
MODEL 7
REMARK VINA RESULT:      -5.1     29.553     33.291
REMARK  13 active torsions:
REMARK  status: ('A' for Active; 'I' for Inactive)
REMARK    1  A    between atoms: O3_3  and  C16_25 
REMARK    2  A    between atoms: O3_3  and  C18_27 
REMARK    3  A    between atoms: O5_5  and  C17_26 
REMARK    4  A    between atoms: N3_9  and  C11_20 
REMARK       I    between atoms: N3_9  and  C13_22 
REMARK    5  A    between atoms: C1_10  and  C3_12 
REMARK    6  A    between atoms: C2_11  and  C5_14 
REMARK    7  A    between atoms: C3_12  and  C7_16 
REMARK    8  A    between atoms: C5_14  and  C8_17 
REMARK    9  A    between atoms: C8_17  and  C11_20 
REMARK   10  A    between atoms: C13_22  and  C14_23 
REMARK   11  A    between atoms: C14_23  and  C15_24 
REMARK   12  A    between atoms: C15_24  and  C18_27 
REMARK   13  A    between atoms: C16_25  and  C17_26 
ROOT
HETATM    1  C8  UNK   900       0.416 -49.742 -60.811  1.00  0.00     0.022 C 
ENDROOT
BRANCH   1   2
HETATM    2  C5  UNK   900      -0.111 -51.159 -61.044  1.00  0.00     0.037 C 
BRANCH   2   3
HETATM    3  C2  UNK   900      -1.499 -51.339 -60.441  1.00  0.00     0.178 C 
HETATM    4  N1  UNK   900      -2.235 -52.470 -61.016  1.00  0.00    -0.341 N 
HETATM    5  C4  UNK   900      -1.994 -53.788 -60.618  1.00  0.00     0.243 C 
HETATM    6  C10 UNK   900      -3.069 -52.198 -62.178  1.00  0.00     0.153 C 
HETATM    7  O1  UNK   900      -2.375 -54.782 -61.239  1.00  0.00    -0.271 OA
HETATM    8  C1  UNK   900      -1.088 -53.909 -59.399  1.00  0.00     0.180 C 
HETATM    9  N2  UNK   900      -1.388 -52.808 -58.501  1.00  0.00    -0.346 N 
HETATM   10  C6  UNK   900      -1.447 -51.499 -58.934  1.00  0.00     0.241 C 
HETATM   11  H6  UNK   900      -1.309 -52.943 -57.499  1.00  0.00     0.163 HD
HETATM   12  O2  UNK   900      -1.364 -50.533 -58.177  1.00  0.00    -0.271 OA
BRANCH   8  13
HETATM   13  C3  UNK   900      -1.273 -55.246 -58.693  1.00  0.00     0.013 C 
HETATM   14  C9  UNK   900      -1.475 -55.024 -57.191  1.00  0.00     0.012 C 
BRANCH  13  15
HETATM   15  C7  UNK   900      -0.086 -56.204 -58.914  1.00  0.00     0.002 C 
HETATM   16  C12 UNK   900       1.260 -55.496 -58.992  1.00  0.00     0.005 C 
ENDBRANCH  13  15
ENDBRANCH   8  13
ENDBRANCH   2   3
ENDBRANCH   1   2
BRANCH   1  17
HETATM   17  C11 UNK   900       1.596 -49.710 -59.844  1.00  0.00     0.122 C 
BRANCH  17  18
HETATM   18  N3  UNK   900       2.313 -48.465 -59.895  1.00  0.00    -0.361 N 
HETATM   19  C13 UNK   900       3.459 -48.206 -59.148  1.00  0.00     0.217 C 
HETATM   20  O4  UNK   900       3.984 -48.997 -58.369  1.00  0.00    -0.274 OA
HETATM   21  H22 UNK   900       1.961 -47.748 -60.521  1.00  0.00     0.162 HD
BRANCH  19  22
HETATM   22  C14 UNK   900       4.000 -46.810 -59.411  1.00  0.00     0.112 C 
BRANCH  22  23
HETATM   23  C15 UNK   900       3.816 -46.353 -60.855  1.00  0.00     0.120 C 
BRANCH  23  24
HETATM   24  C18 UNK   900       3.314 -44.929 -60.958  1.00  0.00     0.259 C 
HETATM   25  O6  UNK   900       2.807 -44.291 -60.047  1.00  0.00    -0.265 OA
BRANCH  24  26
HETATM   26  O3  UNK   900       3.513 -44.482 -62.234  1.00  0.00    -0.314 OA
BRANCH  26  27
HETATM   27  C16 UNK   900       4.853 -44.092 -62.549  1.00  0.00     0.156 C 
HETATM   28  C19 UNK   900       4.876 -42.584 -62.768  1.00  0.00     0.042 C 
BRANCH  27  29
HETATM   29  C17 UNK   900       5.368 -44.875 -63.764  1.00  0.00     0.143 C 
HETATM   30  C20 UNK   900       5.884 -43.959 -64.868  1.00  0.00     0.042 C 
BRANCH  29  31
HETATM   31  O5  UNK   900       6.426 -45.741 -63.359  1.00  0.00    -0.393 OA
HETATM   32  H35 UNK   900       7.049 -45.215 -62.829  1.00  0.00     0.210 HD
ENDBRANCH  29  31
ENDBRANCH  27  29
ENDBRANCH  26  27
ENDBRANCH  24  26
ENDBRANCH  23  24
ENDBRANCH  22  23
ENDBRANCH  19  22
ENDBRANCH  17  18
ENDBRANCH   1  17
TORSDOF 13
ENDMDL
MODEL 8
REMARK VINA RESULT:      -4.9     28.194     32.789
REMARK  13 active torsions:
REMARK  status: ('A' for Active; 'I' for Inactive)
REMARK    1  A    between atoms: O3_3  and  C16_25 
REMARK    2  A    between atoms: O3_3  and  C18_27 
REMARK    3  A    between atoms: O5_5  and  C17_26 
REMARK    4  A    between atoms: N3_9  and  C11_20 
REMARK       I    between atoms: N3_9  and  C13_22 
REMARK    5  A    between atoms: C1_10  and  C3_12 
REMARK    6  A    between atoms: C2_11  and  C5_14 
REMARK    7  A    between atoms: C3_12  and  C7_16 
REMARK    8  A    between atoms: C5_14  and  C8_17 
REMARK    9  A    between atoms: C8_17  and  C11_20 
REMARK   10  A    between atoms: C13_22  and  C14_23 
REMARK   11  A    between atoms: C14_23  and  C15_24 
REMARK   12  A    between atoms: C15_24  and  C18_27 
REMARK   13  A    between atoms: C16_25  and  C17_26 
ROOT
HETATM    1  C8  UNK   900       5.737 -49.693 -77.424  1.00  0.00     0.022 C 
ENDROOT
BRANCH   1   2
HETATM    2  C5  UNK   900       5.373 -50.635 -76.274  1.00  0.00     0.037 C 
BRANCH   2   3
HETATM    3  C2  UNK   900       6.091 -51.972 -76.406  1.00  0.00     0.178 C 
HETATM    4  N1  UNK   900       5.182 -53.091 -76.672  1.00  0.00    -0.341 N 
HETATM    5  C4  UNK   900       4.675 -53.345 -77.950  1.00  0.00     0.243 C 
HETATM    6  C10 UNK   900       4.644 -53.799 -75.518  1.00  0.00     0.153 C 
HETATM    7  O1  UNK   900       3.718 -54.085 -78.182  1.00  0.00    -0.271 OA
HETATM    8  C1  UNK   900       5.325 -52.513 -79.048  1.00  0.00     0.180 C 
HETATM    9  N2  UNK   900       6.731 -52.357 -78.725  1.00  0.00    -0.346 N 
HETATM   10  C6  UNK   900       7.161 -51.939 -77.482  1.00  0.00     0.241 C 
HETATM   11  H6  UNK   900       7.414 -52.305 -79.473  1.00  0.00     0.163 HD
HETATM   12  O2  UNK   900       8.283 -51.482 -77.273  1.00  0.00    -0.271 OA
BRANCH   8  13
HETATM   13  C3  UNK   900       5.154 -53.160 -80.416  1.00  0.00     0.013 C 
HETATM   14  C9  UNK   900       6.342 -54.081 -80.714  1.00  0.00     0.012 C 
BRANCH  13  15
HETATM   15  C7  UNK   900       5.013 -52.126 -81.550  1.00  0.00     0.002 C 
HETATM   16  C12 UNK   900       3.716 -51.331 -81.488  1.00  0.00     0.005 C 
ENDBRANCH  13  15
ENDBRANCH   8  13
ENDBRANCH   2   3
ENDBRANCH   1   2
BRANCH   1  17
HETATM   17  C11 UNK   900       6.209 -48.328 -76.933  1.00  0.00     0.122 C 
BRANCH  17  18
HETATM   18  N3  UNK   900       7.125 -48.428 -75.830  1.00  0.00    -0.361 N 
HETATM   19  C13 UNK   900       6.956 -47.748 -74.626  1.00  0.00     0.217 C 
HETATM   20  O4  UNK   900       6.022 -46.996 -74.369  1.00  0.00    -0.274 OA
HETATM   21  H22 UNK   900       7.929 -49.038 -75.944  1.00  0.00     0.162 HD
BRANCH  19  22
HETATM   22  C14 UNK   900       8.079 -48.051 -73.646  1.00  0.00     0.112 C 
BRANCH  22  23
HETATM   23  C15 UNK   900       7.601 -48.748 -72.376  1.00  0.00     0.120 C 
BRANCH  23  24
HETATM   24  C18 UNK   900       7.487 -50.248 -72.540  1.00  0.00     0.259 C 
HETATM   25  O6  UNK   900       6.464 -50.900 -72.385  1.00  0.00    -0.265 OA
BRANCH  24  26
HETATM   26  O3  UNK   900       8.712 -50.749 -72.878  1.00  0.00    -0.314 OA
BRANCH  26  27
HETATM   27  C16 UNK   900       9.319 -51.604 -71.905  1.00  0.00     0.156 C 
HETATM   28  C19 UNK   900      10.545 -50.897 -71.339  1.00  0.00     0.042 C 
BRANCH  27  29
HETATM   29  C17 UNK   900       9.656 -52.968 -72.525  1.00  0.00     0.143 C 
HETATM   30  C20 UNK   900       9.140 -53.098 -73.953  1.00  0.00     0.042 C 
BRANCH  29  31
HETATM   31  O5  UNK   900      11.070 -53.151 -72.533  1.00  0.00    -0.393 OA
HETATM   32  H35 UNK   900      11.419 -52.712 -73.326  1.00  0.00     0.210 HD
ENDBRANCH  29  31
ENDBRANCH  27  29
ENDBRANCH  26  27
ENDBRANCH  24  26
ENDBRANCH  23  24
ENDBRANCH  22  23
ENDBRANCH  19  22
ENDBRANCH  17  18
ENDBRANCH   1  17
TORSDOF 13
ENDMDL
MODEL 9
REMARK VINA RESULT:      -4.9      9.138     12.769
REMARK  13 active torsions:
REMARK  status: ('A' for Active; 'I' for Inactive)
REMARK    1  A    between atoms: O3_3  and  C16_25 
REMARK    2  A    between atoms: O3_3  and  C18_27 
REMARK    3  A    between atoms: O5_5  and  C17_26 
REMARK    4  A    between atoms: N3_9  and  C11_20 
REMARK       I    between atoms: N3_9  and  C13_22 
REMARK    5  A    between atoms: C1_10  and  C3_12 
REMARK    6  A    between atoms: C2_11  and  C5_14 
REMARK    7  A    between atoms: C3_12  and  C7_16 
REMARK    8  A    between atoms: C5_14  and  C8_17 
REMARK    9  A    between atoms: C8_17  and  C11_20 
REMARK   10  A    between atoms: C13_22  and  C14_23 
REMARK   11  A    between atoms: C14_23  and  C15_24 
REMARK   12  A    between atoms: C15_24  and  C18_27 
REMARK   13  A    between atoms: C16_25  and  C17_26 
ROOT
HETATM    1  C8  UNK   900      37.099 -33.926 -60.966  1.00  0.00     0.022 C 
ENDROOT
BRANCH   1   2
HETATM    2  C5  UNK   900      36.511 -34.856 -59.902  1.00  0.00     0.037 C 
BRANCH   2   3
HETATM    3  C2  UNK   900      36.284 -34.119 -58.588  1.00  0.00     0.178 C 
HETATM    4  N1  UNK   900      34.926 -34.286 -58.061  1.00  0.00    -0.341 N 
HETATM    5  C4  UNK   900      34.537 -35.439 -57.372  1.00  0.00     0.243 C 
HETATM    6  C10 UNK   900      33.928 -33.308 -58.471  1.00  0.00     0.153 C 
HETATM    7  O1  UNK   900      33.367 -35.751 -57.146  1.00  0.00    -0.271 OA
HETATM    8  C1  UNK   900      35.691 -36.373 -57.029  1.00  0.00     0.180 C 
HETATM    9  N2  UNK   900      36.850 -35.560 -56.707  1.00  0.00    -0.346 N 
HETATM   10  C6  UNK   900      37.282 -34.535 -57.524  1.00  0.00     0.241 C 
HETATM   11  H6  UNK   900      37.514 -35.887 -56.014  1.00  0.00     0.163 HD
HETATM   12  O2  UNK   900      38.414 -34.058 -57.467  1.00  0.00    -0.271 OA
BRANCH   8  13
HETATM   13  C3  UNK   900      35.340 -37.296 -55.870  1.00  0.00     0.013 C 
HETATM   14  C9  UNK   900      36.614 -37.713 -55.127  1.00  0.00     0.012 C 
BRANCH  13  15
HETATM   15  C7  UNK   900      34.577 -38.556 -56.323  1.00  0.00     0.002 C 
HETATM   16  C12 UNK   900      33.681 -39.145 -55.242  1.00  0.00     0.005 C 
ENDBRANCH  13  15
ENDBRANCH   8  13
ENDBRANCH   2   3
ENDBRANCH   1   2
BRANCH   1  17
HETATM   17  C11 UNK   900      36.745 -32.462 -60.721  1.00  0.00     0.122 C 
BRANCH  17  18
HETATM   18  N3  UNK   900      37.853 -31.581 -60.973  1.00  0.00    -0.361 N 
HETATM   19  C13 UNK   900      38.652 -31.042 -59.968  1.00  0.00     0.217 C 
HETATM   20  O4  UNK   900      38.506 -31.251 -58.766  1.00  0.00    -0.274 OA
HETATM   21  H22 UNK   900      38.061 -31.356 -61.941  1.00  0.00     0.162 HD
BRANCH  19  22
HETATM   22  C14 UNK   900      39.746 -30.151 -60.534  1.00  0.00     0.112 C 
BRANCH  22  23
HETATM   23  C15 UNK   900      39.442 -28.662 -60.401  1.00  0.00     0.120 C 
BRANCH  23  24
HETATM   24  C18 UNK   900      38.260 -28.230 -61.243  1.00  0.00     0.259 C 
HETATM   25  O6  UNK   900      38.049 -28.578 -62.396  1.00  0.00    -0.265 OA
BRANCH  24  26
HETATM   26  O3  UNK   900      37.479 -27.385 -60.507  1.00  0.00    -0.314 OA
BRANCH  26  27
HETATM   27  C16 UNK   900      36.924 -27.943 -59.311  1.00  0.00     0.156 C 
HETATM   28  C19 UNK   900      35.590 -28.593 -59.657  1.00  0.00     0.042 C 
BRANCH  27  29
HETATM   29  C17 UNK   900      36.794 -26.864 -58.227  1.00  0.00     0.143 C 
HETATM   30  C20 UNK   900      37.638 -25.632 -58.531  1.00  0.00     0.042 C 
BRANCH  29  31
HETATM   31  O5  UNK   900      35.429 -26.464 -58.114  1.00  0.00    -0.393 OA
HETATM   32  H35 UNK   900      35.291 -25.717 -58.721  1.00  0.00     0.210 HD
ENDBRANCH  29  31
ENDBRANCH  27  29
ENDBRANCH  26  27
ENDBRANCH  24  26
ENDBRANCH  23  24
ENDBRANCH  22  23
ENDBRANCH  19  22
ENDBRANCH  17  18
ENDBRANCH   1  17
TORSDOF 13
ENDMDL
