MODEL 1
REMARK VINA RESULT:      -6.9      0.000      0.000
REMARK  5 active torsions:
REMARK  status: ('A' for Active; 'I' for Inactive)
REMARK    1  A    between atoms: O1_1  and  C1_6 
REMARK    2  A    between atoms: O2_2  and  C2_7 
REMARK    3  A    between atoms: O4_4  and  C8_13 
REMARK    4  A    between atoms: O5_5  and  C11_16 
REMARK    5  A    between atoms: C9_14  and  C11_16 
ROOT
HETATM    1  O3  UNK   900      24.560 -38.740 -71.546  1.00  0.00    -0.292 OA
HETATM    2  C1  UNK   900      21.148 -40.417 -69.804  1.00  0.00     0.181 C 
HETATM    3  C2  UNK   900      21.088 -39.819 -71.209  1.00  0.00     0.158 C 
HETATM    4  C3  UNK   900      22.261 -39.826 -68.975  1.00  0.00    -0.010 A 
HETATM    5  C4  UNK   900      22.448 -39.803 -71.895  1.00  0.00     0.118 C 
HETATM    6  C5  UNK   900      23.400 -39.254 -69.561  1.00  0.00     0.052 A 
HETATM    7  C6  UNK   900      23.545 -39.209 -71.038  1.00  0.00     0.165 C 
HETATM    8  C7  UNK   900      22.172 -39.872 -67.575  1.00  0.00     0.020 A 
HETATM    9  C8  UNK   900      24.418 -38.724 -68.758  1.00  0.00     0.080 A 
HETATM   10  C9  UNK   900      23.187 -39.346 -66.778  1.00  0.00    -0.032 A 
HETATM   11  C10 UNK   900      24.309 -38.770 -67.369  1.00  0.00     0.046 A 
ENDROOT
BRANCH  10  12
HETATM   12  C11 UNK   900      23.071 -39.399 -65.291  1.00  0.00     0.203 C 
BRANCH  12  13
HETATM   13  O5  UNK   900      21.741 -39.752 -64.934  1.00  0.00    -0.396 OA
HETATM   14  H12 UNK   900      21.625 -39.514 -63.998  1.00  0.00     0.209 HD
ENDBRANCH  12  13
ENDBRANCH  10  12
BRANCH   9  15
HETATM   15  O4  UNK   900      25.543 -38.149 -69.273  1.00  0.00    -0.360 OA
HETATM   16  H11 UNK   900      25.326 -37.338 -69.755  1.00  0.00     0.217 HD
ENDBRANCH   9  15
BRANCH   2  17
HETATM   17  O1  UNK   900      21.322 -41.829 -69.908  1.00  0.00    -0.388 OA
HETATM   18  H7  UNK   900      22.273 -42.015 -69.834  1.00  0.00     0.210 HD
ENDBRANCH   2  17
BRANCH   3  19
HETATM   19  O2  UNK   900      20.543 -38.501 -71.167  1.00  0.00    -0.392 OA
HETATM   20  H8  UNK   900      21.158 -37.913 -71.637  1.00  0.00     0.210 HD
ENDBRANCH   3  19
TORSDOF 5
ENDMDL
MODEL 2
REMARK VINA RESULT:      -6.7      2.521      4.342
REMARK  5 active torsions:
REMARK  status: ('A' for Active; 'I' for Inactive)
REMARK    1  A    between atoms: O1_1  and  C1_6 
REMARK    2  A    between atoms: O2_2  and  C2_7 
REMARK    3  A    between atoms: O4_4  and  C8_13 
REMARK    4  A    between atoms: O5_5  and  C11_16 
REMARK    5  A    between atoms: C9_14  and  C11_16 
ROOT
HETATM    1  O3  UNK   900      19.689 -39.103 -66.847  1.00  0.00    -0.292 OA
HETATM    2  C1  UNK   900      23.603 -39.363 -68.297  1.00  0.00     0.181 C 
HETATM    3  C2  UNK   900      22.637 -40.537 -68.456  1.00  0.00     0.158 C 
HETATM    4  C3  UNK   900      23.237 -38.471 -67.138  1.00  0.00    -0.010 A 
HETATM    5  C4  UNK   900      21.177 -40.100 -68.429  1.00  0.00     0.118 C 
HETATM    6  C5  UNK   900      21.926 -38.394 -66.645  1.00  0.00     0.052 A 
HETATM    7  C6  UNK   900      20.842 -39.202 -67.257  1.00  0.00     0.165 C 
HETATM    8  C7  UNK   900      24.229 -37.673 -66.548  1.00  0.00     0.020 A 
HETATM    9  C8  UNK   900      21.622 -37.545 -65.572  1.00  0.00     0.080 A 
HETATM   10  C9  UNK   900      23.925 -36.828 -65.481  1.00  0.00    -0.032 A 
HETATM   11  C10 UNK   900      22.623 -36.766 -64.992  1.00  0.00     0.046 A 
ENDROOT
BRANCH  10  12
HETATM   12  C11 UNK   900      24.995 -35.991 -64.864  1.00  0.00     0.203 C 
BRANCH  12  13
HETATM   13  O5  UNK   900      24.564 -35.541 -63.586  1.00  0.00    -0.396 OA
HETATM   14  H12 UNK   900      24.111 -36.289 -63.159  1.00  0.00     0.209 HD
ENDBRANCH  12  13
ENDBRANCH  10  12
BRANCH   9  15
HETATM   15  O4  UNK   900      20.369 -37.435 -65.047  1.00  0.00    -0.360 OA
HETATM   16  H11 UNK   900      19.725 -37.210 -65.735  1.00  0.00     0.217 HD
ENDBRANCH   9  15
BRANCH   2  17
HETATM   17  O1  UNK   900      23.613 -38.604 -69.505  1.00  0.00    -0.388 OA
HETATM   18  H7  UNK   900      22.921 -37.925 -69.432  1.00  0.00     0.210 HD
ENDBRANCH   2  17
BRANCH   3  19
HETATM   19  O2  UNK   900      22.874 -41.518 -67.448  1.00  0.00    -0.392 OA
HETATM   20  H8  UNK   900      22.011 -41.790 -67.093  1.00  0.00     0.210 HD
ENDBRANCH   3  19
TORSDOF 5
ENDMDL
MODEL 3
REMARK VINA RESULT:      -6.7      2.498      3.685
REMARK  5 active torsions:
REMARK  status: ('A' for Active; 'I' for Inactive)
REMARK    1  A    between atoms: O1_1  and  C1_6 
REMARK    2  A    between atoms: O2_2  and  C2_7 
REMARK    3  A    between atoms: O4_4  and  C8_13 
REMARK    4  A    between atoms: O5_5  and  C11_16 
REMARK    5  A    between atoms: C9_14  and  C11_16 
ROOT
HETATM    1  O3  UNK   900      23.692 -40.673 -71.232  1.00  0.00    -0.292 OA
HETATM    2  C1  UNK   900      20.892 -39.063 -68.576  1.00  0.00     0.181 C 
HETATM    3  C2  UNK   900      20.619 -40.391 -69.281  1.00  0.00     0.158 C 
HETATM    4  C3  UNK   900      21.860 -38.195 -69.340  1.00  0.00    -0.010 A 
HETATM    5  C4  UNK   900      21.898 -41.098 -69.711  1.00  0.00     0.118 C 
HETATM    6  C5  UNK   900      22.791 -38.736 -70.240  1.00  0.00     0.052 A 
HETATM    7  C6  UNK   900      22.851 -40.201 -70.472  1.00  0.00     0.165 C 
HETATM    8  C7  UNK   900      21.851 -36.808 -69.129  1.00  0.00     0.020 A 
HETATM    9  C8  UNK   900      23.682 -37.899 -70.924  1.00  0.00     0.080 A 
HETATM   10  C9  UNK   900      22.739 -35.976 -69.811  1.00  0.00    -0.032 A 
HETATM   11  C10 UNK   900      23.652 -36.521 -70.709  1.00  0.00     0.046 A 
ENDROOT
BRANCH  10  12
HETATM   12  C11 UNK   900      22.710 -34.503 -69.577  1.00  0.00     0.203 C 
BRANCH  12  13
HETATM   13  O5  UNK   900      23.413 -33.845 -70.623  1.00  0.00    -0.396 OA
HETATM   14  H12 UNK   900      23.441 -34.459 -71.377  1.00  0.00     0.209 HD
ENDBRANCH  12  13
ENDBRANCH  10  12
BRANCH   9  15
HETATM   15  O4  UNK   900      24.602 -38.367 -71.815  1.00  0.00    -0.360 OA
HETATM   16  H11 UNK   900      24.761 -39.313 -71.681  1.00  0.00     0.217 HD
ENDBRANCH   9  15
BRANCH   2  17
HETATM   17  O1  UNK   900      21.407 -39.327 -67.272  1.00  0.00    -0.388 OA
HETATM   18  H7  UNK   900      21.173 -40.242 -67.043  1.00  0.00     0.210 HD
ENDBRANCH   2  17
BRANCH   3  19
HETATM   19  O2  UNK   900      19.765 -40.192 -70.406  1.00  0.00    -0.392 OA
HETATM   20  H8  UNK   900      20.164 -39.500 -70.960  1.00  0.00     0.210 HD
ENDBRANCH   3  19
TORSDOF 5
ENDMDL
MODEL 4
REMARK VINA RESULT:      -6.6      2.427      3.310
REMARK  5 active torsions:
REMARK  status: ('A' for Active; 'I' for Inactive)
REMARK    1  A    between atoms: O1_1  and  C1_6 
REMARK    2  A    between atoms: O2_2  and  C2_7 
REMARK    3  A    between atoms: O4_4  and  C8_13 
REMARK    4  A    between atoms: O5_5  and  C11_16 
REMARK    5  A    between atoms: C9_14  and  C11_16 
ROOT
HETATM    1  O3  UNK   900      24.359 -40.811 -68.719  1.00  0.00    -0.292 OA
HETATM    2  C1  UNK   900      22.373 -38.536 -71.611  1.00  0.00     0.181 C 
HETATM    3  C2  UNK   900      23.541 -39.441 -72.003  1.00  0.00     0.158 C 
HETATM    4  C3  UNK   900      22.432 -38.115 -70.165  1.00  0.00    -0.010 A 
HETATM    5  C4  UNK   900      23.749 -40.585 -71.019  1.00  0.00     0.118 C 
HETATM    6  C5  UNK   900      23.109 -38.873 -69.198  1.00  0.00     0.052 A 
HETATM    7  C6  UNK   900      23.800 -40.132 -69.575  1.00  0.00     0.165 C 
HETATM    8  C7  UNK   900      21.770 -36.944 -69.764  1.00  0.00     0.020 A 
HETATM    9  C8  UNK   900      23.133 -38.455 -67.861  1.00  0.00     0.080 A 
HETATM   10  C9  UNK   900      21.795 -36.530 -68.433  1.00  0.00    -0.032 A 
HETATM   11  C10 UNK   900      22.478 -37.284 -67.482  1.00  0.00     0.046 A 
ENDROOT
BRANCH  10  12
HETATM   12  C11 UNK   900      21.089 -35.279 -68.028  1.00  0.00     0.203 C 
BRANCH  12  13
HETATM   13  O5  UNK   900      19.721 -35.365 -68.406  1.00  0.00    -0.396 OA
HETATM   14  H12 UNK   900      19.633 -34.911 -69.262  1.00  0.00     0.209 HD
ENDBRANCH  12  13
ENDBRANCH  10  12
BRANCH   9  15
HETATM   15  O4  UNK   900      23.781 -39.147 -66.881  1.00  0.00    -0.360 OA
HETATM   16  H11 UNK   900      24.615 -39.513 -67.210  1.00  0.00     0.217 HD
ENDBRANCH   9  15
BRANCH   2  17
HETATM   17  O1  UNK   900      21.149 -39.225 -71.863  1.00  0.00    -0.388 OA
HETATM   18  H7  UNK   900      21.059 -39.921 -71.192  1.00  0.00     0.210 HD
ENDBRANCH   2  17
BRANCH   3  19
HETATM   19  O2  UNK   900      24.740 -38.679 -72.131  1.00  0.00    -0.392 OA
HETATM   20  H8  UNK   900      25.460 -39.192 -71.727  1.00  0.00     0.210 HD
ENDBRANCH   3  19
TORSDOF 5
ENDMDL
MODEL 5
REMARK VINA RESULT:      -6.5      2.065      2.600
REMARK  5 active torsions:
REMARK  status: ('A' for Active; 'I' for Inactive)
REMARK    1  A    between atoms: O1_1  and  C1_6 
REMARK    2  A    between atoms: O2_2  and  C2_7 
REMARK    3  A    between atoms: O4_4  and  C8_13 
REMARK    4  A    between atoms: O5_5  and  C11_16 
REMARK    5  A    between atoms: C9_14  and  C11_16 
ROOT
HETATM    1  O3  UNK   900      24.424 -41.035 -68.457  1.00  0.00    -0.292 OA
HETATM    2  C1  UNK   900      20.655 -39.783 -69.769  1.00  0.00     0.181 C 
HETATM    3  C2  UNK   900      21.811 -39.931 -70.757  1.00  0.00     0.158 C 
HETATM    4  C3  UNK   900      21.132 -39.543 -68.359  1.00  0.00    -0.010 A 
HETATM    5  C4  UNK   900      22.873 -40.909 -70.272  1.00  0.00     0.118 C 
HETATM    6  C5  UNK   900      22.401 -39.953 -67.923  1.00  0.00     0.052 A 
HETATM    7  C6  UNK   900      23.329 -40.645 -68.853  1.00  0.00     0.165 C 
HETATM    8  C7  UNK   900      20.274 -38.913 -67.443  1.00  0.00     0.020 A 
HETATM    9  C8  UNK   900      22.805 -39.721 -66.602  1.00  0.00     0.080 A 
HETATM   10  C9  UNK   900      20.678 -38.684 -66.128  1.00  0.00    -0.032 A 
HETATM   11  C10 UNK   900      21.943 -39.086 -65.709  1.00  0.00     0.046 A 
ENDROOT
BRANCH  10  12
HETATM   12  C11 UNK   900      19.753 -38.009 -65.171  1.00  0.00     0.203 C 
BRANCH  12  13
HETATM   13  O5  UNK   900      18.531 -38.732 -65.106  1.00  0.00    -0.396 OA
HETATM   14  H12 UNK   900      18.482 -39.282 -65.907  1.00  0.00     0.209 HD
ENDBRANCH  12  13
ENDBRANCH  10  12
BRANCH   9  15
HETATM   15  O4  UNK   900      24.029 -40.090 -66.127  1.00  0.00    -0.360 OA
HETATM   16  H11 UNK   900      24.715 -39.950 -66.795  1.00  0.00     0.217 HD
ENDBRANCH   9  15
BRANCH   2  17
HETATM   17  O1  UNK   900      19.855 -40.964 -69.812  1.00  0.00    -0.388 OA
HETATM   18  H7  UNK   900      20.358 -41.676 -69.384  1.00  0.00     0.210 HD
ENDBRANCH   2  17
BRANCH   3  19
HETATM   19  O2  UNK   900      22.401 -38.660 -71.027  1.00  0.00    -0.392 OA
HETATM   20  H8  UNK   900      23.366 -38.780 -71.041  1.00  0.00     0.210 HD
ENDBRANCH   3  19
TORSDOF 5
ENDMDL
MODEL 6
REMARK VINA RESULT:      -6.3      3.443      4.833
REMARK  5 active torsions:
REMARK  status: ('A' for Active; 'I' for Inactive)
REMARK    1  A    between atoms: O1_1  and  C1_6 
REMARK    2  A    between atoms: O2_2  and  C2_7 
REMARK    3  A    between atoms: O4_4  and  C8_13 
REMARK    4  A    between atoms: O5_5  and  C11_16 
REMARK    5  A    between atoms: C9_14  and  C11_16 
ROOT
HETATM    1  O3  UNK   900      20.930 -38.361 -69.464  1.00  0.00    -0.292 OA
HETATM    2  C1  UNK   900      21.601 -37.815 -65.372  1.00  0.00     0.181 C 
HETATM    3  C2  UNK   900      20.377 -38.589 -65.861  1.00  0.00     0.158 C 
HETATM    4  C3  UNK   900      22.117 -36.844 -66.403  1.00  0.00    -0.010 A 
HETATM    5  C4  UNK   900      20.580 -39.187 -67.248  1.00  0.00     0.118 C 
HETATM    6  C5  UNK   900      21.881 -37.022 -67.775  1.00  0.00     0.052 A 
HETATM    7  C6  UNK   900      21.102 -38.189 -68.260  1.00  0.00     0.165 C 
HETATM    8  C7  UNK   900      22.879 -35.742 -65.986  1.00  0.00     0.020 A 
HETATM    9  C8  UNK   900      22.386 -36.104 -68.705  1.00  0.00     0.080 A 
HETATM   10  C9  UNK   900      23.381 -34.829 -66.913  1.00  0.00    -0.032 A 
HETATM   11  C10 UNK   900      23.133 -35.009 -68.271  1.00  0.00     0.046 A 
ENDROOT
BRANCH  10  12
HETATM   12  C11 UNK   900      24.184 -33.660 -66.449  1.00  0.00     0.203 C 
BRANCH  12  13
HETATM   13  O5  UNK   900      23.556 -33.076 -65.315  1.00  0.00    -0.396 OA
HETATM   14  H12 UNK   900      24.211 -33.074 -64.596  1.00  0.00     0.209 HD
ENDBRANCH  12  13
ENDBRANCH  10  12
BRANCH   9  15
HETATM   15  O4  UNK   900      22.181 -36.222 -70.048  1.00  0.00    -0.360 OA
HETATM   16  H11 UNK   900      21.353 -35.793 -70.310  1.00  0.00     0.217 HD
ENDBRANCH   9  15
BRANCH   2  17
HETATM   17  O1  UNK   900      22.629 -38.744 -65.027  1.00  0.00    -0.388 OA
HETATM   18  H7  UNK   900      22.593 -38.878 -64.065  1.00  0.00     0.210 HD
ENDBRANCH   2  17
BRANCH   3  19
HETATM   19  O2  UNK   900      19.222 -37.752 -65.851  1.00  0.00    -0.392 OA
HETATM   20  H8  UNK   900      19.519 -36.837 -65.991  1.00  0.00     0.210 HD
ENDBRANCH   3  19
TORSDOF 5
ENDMDL
MODEL 7
REMARK VINA RESULT:      -6.1      3.292      4.364
REMARK  5 active torsions:
REMARK  status: ('A' for Active; 'I' for Inactive)
REMARK    1  A    between atoms: O1_1  and  C1_6 
REMARK    2  A    between atoms: O2_2  and  C2_7 
REMARK    3  A    between atoms: O4_4  and  C8_13 
REMARK    4  A    between atoms: O5_5  and  C11_16 
REMARK    5  A    between atoms: C9_14  and  C11_16 
ROOT
HETATM    1  O3  UNK   900      23.310 -37.766 -71.850  1.00  0.00    -0.292 OA
HETATM    2  C1  UNK   900      23.699 -38.311 -67.722  1.00  0.00     0.181 C 
HETATM    3  C2  UNK   900      23.035 -39.382 -68.587  1.00  0.00     0.158 C 
HETATM    4  C3  UNK   900      23.619 -36.940 -68.343  1.00  0.00    -0.010 A 
HETATM    5  C4  UNK   900      23.484 -39.319 -70.041  1.00  0.00     0.118 C 
HETATM    6  C5  UNK   900      23.477 -36.758 -69.727  1.00  0.00     0.052 A 
HETATM    7  C6  UNK   900      23.397 -37.930 -70.636  1.00  0.00     0.165 C 
HETATM    8  C7  UNK   900      23.716 -35.808 -67.519  1.00  0.00     0.020 A 
HETATM    9  C8  UNK   900      23.417 -35.468 -70.269  1.00  0.00     0.080 A 
HETATM   10  C9  UNK   900      23.657 -34.524 -68.061  1.00  0.00    -0.032 A 
HETATM   11  C10 UNK   900      23.506 -34.354 -69.434  1.00  0.00     0.046 A 
ENDROOT
BRANCH  10  12
HETATM   12  C11 UNK   900      23.757 -33.333 -67.168  1.00  0.00     0.203 C 
BRANCH  12  13
HETATM   13  O5  UNK   900      24.133 -32.197 -67.936  1.00  0.00    -0.396 OA
HETATM   14  H12 UNK   900      24.981 -32.409 -68.362  1.00  0.00     0.209 HD
ENDBRANCH  12  13
ENDBRANCH  10  12
BRANCH   9  15
HETATM   15  O4  UNK   900      23.271 -35.232 -71.604  1.00  0.00    -0.360 OA
HETATM   16  H11 UNK   900      22.431 -35.589 -71.928  1.00  0.00     0.217 HD
ENDBRANCH   9  15
BRANCH   2  17
HETATM   17  O1  UNK   900      25.065 -38.667 -67.511  1.00  0.00    -0.388 OA
HETATM   18  H7  UNK   900      25.222 -39.512 -67.965  1.00  0.00     0.210 HD
ENDBRANCH   2  17
BRANCH   3  19
HETATM   19  O2  UNK   900      21.614 -39.278 -68.506  1.00  0.00    -0.392 OA
HETATM   20  H8  UNK   900      21.406 -38.594 -67.847  1.00  0.00     0.210 HD
ENDBRANCH   3  19
TORSDOF 5
ENDMDL
MODEL 8
REMARK VINA RESULT:      -6.0     16.118     17.717
REMARK  5 active torsions:
REMARK  status: ('A' for Active; 'I' for Inactive)
REMARK    1  A    between atoms: O1_1  and  C1_6 
REMARK    2  A    between atoms: O2_2  and  C2_7 
REMARK    3  A    between atoms: O4_4  and  C8_13 
REMARK    4  A    between atoms: O5_5  and  C11_16 
REMARK    5  A    between atoms: C9_14  and  C11_16 
ROOT
HETATM    1  O3  UNK   900      32.904 -39.128 -54.882  1.00  0.00    -0.292 OA
HETATM    2  C1  UNK   900      36.386 -39.303 -57.191  1.00  0.00     0.181 C 
HETATM    3  C2  UNK   900      36.318 -40.005 -55.836  1.00  0.00     0.158 C 
HETATM    4  C3  UNK   900      35.417 -38.153 -57.292  1.00  0.00    -0.010 A 
HETATM    5  C4  UNK   900      34.890 -40.342 -55.423  1.00  0.00     0.118 C 
HETATM    6  C5  UNK   900      34.255 -38.089 -56.508  1.00  0.00     0.052 A 
HETATM    7  C6  UNK   900      33.941 -39.169 -55.539  1.00  0.00     0.165 C 
HETATM    8  C7  UNK   900      35.666 -37.125 -58.215  1.00  0.00     0.020 A 
HETATM    9  C8  UNK   900      33.372 -37.009 -56.637  1.00  0.00     0.080 A 
HETATM   10  C9  UNK   900      34.786 -36.051 -58.343  1.00  0.00    -0.032 A 
HETATM   11  C10 UNK   900      33.641 -35.992 -57.553  1.00  0.00     0.046 A 
ENDROOT
BRANCH  10  12
HETATM   12  C11 UNK   900      35.072 -34.966 -59.326  1.00  0.00     0.203 C 
BRANCH  12  13
HETATM   13  O5  UNK   900      33.855 -34.327 -59.691  1.00  0.00    -0.396 OA
HETATM   14  H12 UNK   900      33.535 -34.764 -60.499  1.00  0.00     0.209 HD
ENDBRANCH  12  13
ENDBRANCH  10  12
BRANCH   9  15
HETATM   15  O4  UNK   900      32.233 -36.891 -55.897  1.00  0.00    -0.360 OA
HETATM   16  H11 UNK   900      32.198 -37.570 -55.207  1.00  0.00     0.217 HD
ENDBRANCH   9  15
BRANCH   2  17
HETATM   17  O1  UNK   900      36.113 -40.255 -58.220  1.00  0.00    -0.388 OA
HETATM   18  H7  UNK   900      36.421 -41.122 -57.907  1.00  0.00     0.210 HD
ENDBRANCH   2  17
BRANCH   3  19
HETATM   19  O2  UNK   900      36.945 -39.210 -54.830  1.00  0.00    -0.392 OA
HETATM   20  H8  UNK   900      37.394 -39.813 -54.215  1.00  0.00     0.210 HD
ENDBRANCH   3  19
TORSDOF 5
ENDMDL
MODEL 9
REMARK VINA RESULT:      -5.9      1.929      2.261
REMARK  5 active torsions:
REMARK  status: ('A' for Active; 'I' for Inactive)
REMARK    1  A    between atoms: O1_1  and  C1_6 
REMARK    2  A    between atoms: O2_2  and  C2_7 
REMARK    3  A    between atoms: O4_4  and  C8_13 
REMARK    4  A    between atoms: O5_5  and  C11_16 
REMARK    5  A    between atoms: C9_14  and  C11_16 
ROOT
HETATM    1  O3  UNK   900      22.513 -37.918 -70.665  1.00  0.00    -0.292 OA
HETATM    2  C1  UNK   900      22.069 -41.138 -68.033  1.00  0.00     0.181 C 
HETATM    3  C2  UNK   900      21.335 -41.124 -69.373  1.00  0.00     0.158 C 
HETATM    4  C3  UNK   900      22.409 -39.750 -67.550  1.00  0.00    -0.010 A 
HETATM    5  C4  UNK   900      22.024 -40.244 -70.408  1.00  0.00     0.118 C 
HETATM    6  C5  UNK   900      22.546 -38.669 -68.433  1.00  0.00     0.052 A 
HETATM    7  C6  UNK   900      22.356 -38.860 -69.893  1.00  0.00     0.165 C 
HETATM    8  C7  UNK   900      22.621 -39.535 -66.179  1.00  0.00     0.020 A 
HETATM    9  C8  UNK   900      22.873 -37.396 -67.948  1.00  0.00     0.080 A 
HETATM   10  C9  UNK   900      22.947 -38.268 -65.698  1.00  0.00    -0.032 A 
HETATM   11  C10 UNK   900      23.071 -37.198 -66.581  1.00  0.00     0.046 A 
ENDROOT
BRANCH  10  12
HETATM   12  C11 UNK   900      23.163 -38.058 -64.237  1.00  0.00     0.203 C 
BRANCH  12  13
HETATM   13  O5  UNK   900      23.807 -36.807 -64.030  1.00  0.00    -0.396 OA
HETATM   14  H12 UNK   900      24.643 -36.831 -64.525  1.00  0.00     0.209 HD
ENDBRANCH  12  13
ENDBRANCH  10  12
BRANCH   9  15
HETATM   15  O4  UNK   900      23.011 -36.308 -68.757  1.00  0.00    -0.360 OA
HETATM   16  H11 UNK   900      22.178 -36.106 -69.209  1.00  0.00     0.217 HD
ENDBRANCH   9  15
BRANCH   2  17
HETATM   17  O1  UNK   900      23.264 -41.907 -68.168  1.00  0.00    -0.388 OA
HETATM   18  H7  UNK   900      23.299 -42.239 -69.080  1.00  0.00     0.210 HD
ENDBRANCH   2  17
BRANCH   3  19
HETATM   19  O2  UNK   900      19.982 -40.706 -69.196  1.00  0.00    -0.392 OA
HETATM   20  H8  UNK   900      19.540 -41.368 -68.637  1.00  0.00     0.210 HD
ENDBRANCH   3  19
TORSDOF 5
ENDMDL
