MODEL 1
REMARK VINA RESULT:      -8.5      0.000      0.000
REMARK  7 active torsions:
REMARK  status: ('A' for Active; 'I' for Inactive)
REMARK    1  A    between atoms: O4_4  and  C20_28 
REMARK    2  A    between atoms: O4_4  and  C23_31 
REMARK    3  A    between atoms: O5_5  and  C17_25 
REMARK    4  A    between atoms: O6_6  and  C18_26 
REMARK    5  A    between atoms: O7_7  and  C26_34 
REMARK    6  A    between atoms: C14_22  and  C16_24 
REMARK    7  A    between atoms: C19_27  and  C26_34 
ROOT
HETATM    1  O1  UNK   900      37.137 -38.232 -57.927  1.00  0.00    -0.344 OA
HETATM    2  O2  UNK   900      34.983 -41.159 -54.889  1.00  0.00    -0.268 OA
HETATM    3  N1  UNK   900      34.173 -39.047 -55.210  1.00  0.00    -0.332 N 
HETATM    4  C1  UNK   900      38.552 -40.078 -57.320  1.00  0.00     0.024 C 
HETATM    5  C2  UNK   900      37.525 -40.625 -56.276  1.00  0.00     0.037 C 
HETATM    6  C3  UNK   900      38.366 -40.955 -54.999  1.00  0.00    -0.009 C 
HETATM    7  C4  UNK   900      39.514 -41.196 -57.734  1.00  0.00     0.012 C 
HETATM    8  C5  UNK   900      40.309 -41.690 -56.518  1.00  0.00    -0.018 C 
HETATM    9  C6  UNK   900      39.392 -42.061 -55.346  1.00  0.00     0.009 C 
HETATM   10  C7  UNK   900      37.814 -39.383 -58.467  1.00  0.00     0.129 C 
HETATM   11  C8  UNK   900      36.353 -39.660 -56.155  1.00  0.00     0.049 C 
HETATM   12  C9  UNK   900      37.591 -41.400 -53.761  1.00  0.00     0.011 C 
HETATM   13  C10 UNK   900      36.265 -38.537 -56.901  1.00  0.00     0.093 C 
HETATM   14  C11 UNK   900      41.204 -42.869 -56.900  1.00  0.00     0.010 C 
HETATM   15  C12 UNK   900      38.733 -38.859 -59.566  1.00  0.00     0.040 C 
HETATM   16  C13 UNK   900      35.133 -40.031 -55.352  1.00  0.00     0.254 C 
HETATM   17  C14 UNK   900      35.198 -37.559 -56.726  1.00  0.00     0.024 C 
HETATM   18  C15 UNK   900      34.206 -37.848 -55.869  1.00  0.00     0.106 C 
HETATM   19  H19 UNK   900      33.361 -39.239 -54.631  1.00  0.00     0.168 HD
ENDROOT
BRANCH  17  20
HETATM   20  C16 UNK   900      35.149 -36.255 -57.417  1.00  0.00    -0.022 A 
HETATM   21  C21 UNK   900      34.146 -35.998 -58.351  1.00  0.00     0.015 A 
HETATM   22  C24 UNK   900      34.101 -34.766 -59.005  1.00  0.00     0.038 A 
HETATM   23  C23 UNK   900      35.060 -33.793 -58.724  1.00  0.00     0.072 A 
HETATM   24  C25 UNK   900      36.064 -34.050 -57.790  1.00  0.00     0.038 A 
HETATM   25  C22 UNK   900      36.108 -35.282 -57.136  1.00  0.00     0.015 A 
BRANCH  23  26
HETATM   26  O4  UNK   900      35.018 -32.592 -59.363  1.00  0.00    -0.318 OA
BRANCH  26  27
HETATM   27  C20 UNK   900      35.915 -31.585 -58.911  1.00  0.00     0.298 C 
HETATM   28  O3  UNK   900      35.190 -30.405 -58.512  1.00  0.00    -0.348 OA
HETATM   29  C19 UNK   900      35.366 -29.388 -59.513  1.00  0.00     0.179 C 
HETATM   30  C17 UNK   900      35.960 -30.093 -60.721  1.00  0.00     0.182 C 
HETATM   31  C18 UNK   900      36.812 -31.161 -60.065  1.00  0.00     0.205 C 
BRANCH  29  32
HETATM   32  C26 UNK   900      34.034 -28.718 -59.803  1.00  0.00     0.198 C 
BRANCH  32  33
HETATM   33  O7  UNK   900      33.602 -29.101 -61.099  1.00  0.00    -0.398 OA
HETATM   34  H33 UNK   900      34.263 -29.723 -61.448  1.00  0.00     0.209 HD
ENDBRANCH  32  33
ENDBRANCH  29  32
BRANCH  30  35
HETATM   35  O5  UNK   900      36.700 -29.210 -61.538  1.00  0.00    -0.390 OA
HETATM   36  H31 UNK   900      37.061 -28.514 -60.963  1.00  0.00     0.210 HD
ENDBRANCH  30  35
BRANCH  31  37
HETATM   37  O6  UNK   900      38.006 -30.582 -59.549  1.00  0.00    -0.388 OA
HETATM   38  H32 UNK   900      38.243 -31.073 -58.744  1.00  0.00     0.210 HD
ENDBRANCH  31  37
ENDBRANCH  26  27
ENDBRANCH  23  26
ENDBRANCH  17  20
TORSDOF 7
ENDMDL
MODEL 2
REMARK VINA RESULT:      -7.9      2.793      4.537
REMARK  7 active torsions:
REMARK  status: ('A' for Active; 'I' for Inactive)
REMARK    1  A    between atoms: O4_4  and  C20_28 
REMARK    2  A    between atoms: O4_4  and  C23_31 
REMARK    3  A    between atoms: O5_5  and  C17_25 
REMARK    4  A    between atoms: O6_6  and  C18_26 
REMARK    5  A    between atoms: O7_7  and  C26_34 
REMARK    6  A    between atoms: C14_22  and  C16_24 
REMARK    7  A    between atoms: C19_27  and  C26_34 
ROOT
HETATM    1  O1  UNK   900      36.409 -36.415 -58.590  1.00  0.00    -0.344 OA
HETATM    2  O2  UNK   900      31.840 -37.359 -57.768  1.00  0.00    -0.268 OA
HETATM    3  N1  UNK   900      32.471 -35.272 -58.452  1.00  0.00    -0.332 N 
HETATM    4  C1  UNK   900      36.138 -38.416 -57.287  1.00  0.00     0.024 C 
HETATM    5  C2  UNK   900      34.590 -38.227 -57.171  1.00  0.00     0.037 C 
HETATM    6  C3  UNK   900      34.251 -38.488 -55.667  1.00  0.00    -0.009 C 
HETATM    7  C4  UNK   900      36.500 -39.882 -57.028  1.00  0.00     0.012 C 
HETATM    8  C5  UNK   900      36.090 -40.287 -55.606  1.00  0.00    -0.018 C 
HETATM    9  C6  UNK   900      34.622 -39.949 -55.315  1.00  0.00     0.009 C 
HETATM   10  C7  UNK   900      36.639 -37.836 -58.612  1.00  0.00     0.129 C 
HETATM   11  C8  UNK   900      34.188 -36.898 -57.795  1.00  0.00     0.049 C 
HETATM   12  C9  UNK   900      32.806 -38.250 -55.236  1.00  0.00     0.011 C 
HETATM   13  C10 UNK   900      35.087 -36.075 -58.379  1.00  0.00     0.093 C 
HETATM   14  C11 UNK   900      36.360 -41.773 -55.368  1.00  0.00     0.010 C 
HETATM   15  C12 UNK   900      38.136 -38.020 -58.841  1.00  0.00     0.040 C 
HETATM   16  C13 UNK   900      32.735 -36.545 -57.981  1.00  0.00     0.254 C 
HETATM   17  C14 UNK   900      34.729 -34.758 -58.894  1.00  0.00     0.024 C 
HETATM   18  C15 UNK   900      33.434 -34.405 -58.888  1.00  0.00     0.106 C 
HETATM   19  H19 UNK   900      31.503 -34.977 -58.539  1.00  0.00     0.168 HD
ENDROOT
BRANCH  17  20
HETATM   20  C16 UNK   900      35.706 -33.775 -59.402  1.00  0.00    -0.022 A 
HETATM   21  C21 UNK   900      36.137 -32.732 -58.584  1.00  0.00     0.015 A 
HETATM   22  C24 UNK   900      37.060 -31.803 -59.065  1.00  0.00     0.038 A 
HETATM   23  C23 UNK   900      37.550 -31.917 -60.367  1.00  0.00     0.072 A 
HETATM   24  C25 UNK   900      37.119 -32.961 -61.186  1.00  0.00     0.038 A 
HETATM   25  C22 UNK   900      36.196 -33.890 -60.704  1.00  0.00     0.015 A 
BRANCH  23  26
HETATM   26  O4  UNK   900      38.449 -31.010 -60.837  1.00  0.00    -0.318 OA
BRANCH  26  27
HETATM   27  C20 UNK   900      38.715 -31.027 -62.234  1.00  0.00     0.298 C 
HETATM   28  O3  UNK   900      40.123 -30.835 -62.482  1.00  0.00    -0.348 OA
HETATM   29  C19 UNK   900      40.332 -29.503 -62.979  1.00  0.00     0.179 C 
HETATM   30  C17 UNK   900      39.036 -28.753 -62.719  1.00  0.00     0.182 C 
HETATM   31  C18 UNK   900      38.006 -29.852 -62.891  1.00  0.00     0.205 C 
BRANCH  29  32
HETATM   32  C26 UNK   900      41.535 -28.881 -62.291  1.00  0.00     0.198 C 
BRANCH  32  33
HETATM   33  O7  UNK   900      41.129 -27.674 -61.665  1.00  0.00    -0.398 OA
HETATM   34  H33 UNK   900      41.519 -27.670 -60.773  1.00  0.00     0.209 HD
ENDBRANCH  32  33
ENDBRANCH  29  32
BRANCH  30  35
HETATM   35  O5  UNK   900      38.859 -27.674 -63.612  1.00  0.00    -0.390 OA
HETATM   36  H31 UNK   900      37.923 -27.663 -63.874  1.00  0.00     0.210 HD
ENDBRANCH  30  35
BRANCH  31  37
HETATM   37  O6  UNK   900      37.817 -30.127 -64.275  1.00  0.00    -0.388 OA
HETATM   38  H32 UNK   900      36.964 -30.586 -64.367  1.00  0.00     0.210 HD
ENDBRANCH  31  37
ENDBRANCH  26  27
ENDBRANCH  23  26
ENDBRANCH  17  20
TORSDOF 7
ENDMDL
MODEL 3
REMARK VINA RESULT:      -7.6     42.578     46.217
REMARK  7 active torsions:
REMARK  status: ('A' for Active; 'I' for Inactive)
REMARK    1  A    between atoms: O4_4  and  C20_28 
REMARK    2  A    between atoms: O4_4  and  C23_31 
REMARK    3  A    between atoms: O5_5  and  C17_25 
REMARK    4  A    between atoms: O6_6  and  C18_26 
REMARK    5  A    between atoms: O7_7  and  C26_34 
REMARK    6  A    between atoms: C14_22  and  C16_24 
REMARK    7  A    between atoms: C19_27  and  C26_34 
ROOT
HETATM    1  O1  UNK   900       2.010 -66.205 -49.354  1.00  0.00    -0.344 OA
HETATM    2  O2  UNK   900      -1.952 -65.613 -51.882  1.00  0.00    -0.268 OA
HETATM    3  N1  UNK   900       0.011 -66.120 -52.936  1.00  0.00    -0.332 N 
HETATM    4  C1  UNK   900       0.314 -65.063 -48.090  1.00  0.00     0.024 C 
HETATM    5  C2  UNK   900      -0.658 -64.987 -49.312  1.00  0.00     0.037 C 
HETATM    6  C3  UNK   900      -1.197 -63.518 -49.324  1.00  0.00    -0.009 C 
HETATM    7  C4  UNK   900      -0.478 -64.900 -46.788  1.00  0.00     0.012 C 
HETATM    8  C5  UNK   900      -1.161 -63.527 -46.751  1.00  0.00    -0.018 C 
HETATM    9  C6  UNK   900      -1.986 -63.263 -48.017  1.00  0.00     0.009 C 
HETATM   10  C7  UNK   900       1.177 -66.324 -48.184  1.00  0.00     0.129 C 
HETATM   11  C8  UNK   900       0.037 -65.525 -50.554  1.00  0.00     0.049 C 
HETATM   12  C9  UNK   900      -2.087 -63.122 -50.499  1.00  0.00     0.011 C 
HETATM   13  C10 UNK   900       1.296 -66.015 -50.521  1.00  0.00     0.093 C 
HETATM   14  C11 UNK   900      -2.030 -63.390 -45.500  1.00  0.00     0.010 C 
HETATM   15  C12 UNK   900       2.126 -66.514 -47.005  1.00  0.00     0.040 C 
HETATM   16  C13 UNK   900      -0.731 -65.735 -51.834  1.00  0.00     0.254 C 
HETATM   17  C14 UNK   900       2.006 -66.444 -51.721  1.00  0.00     0.024 C 
HETATM   18  C15 UNK   900       1.335 -66.457 -52.883  1.00  0.00     0.106 C 
HETATM   19  H19 UNK   900      -0.461 -66.218 -53.830  1.00  0.00     0.168 HD
ENDROOT
BRANCH  17  20
HETATM   20  C16 UNK   900       3.426 -66.845 -51.742  1.00  0.00    -0.022 A 
HETATM   21  C21 UNK   900       3.769 -68.195 -51.802  1.00  0.00     0.015 A 
HETATM   22  C24 UNK   900       5.111 -68.574 -51.821  1.00  0.00     0.038 A 
HETATM   23  C23 UNK   900       6.111 -67.601 -51.780  1.00  0.00     0.072 A 
HETATM   24  C25 UNK   900       5.768 -66.250 -51.721  1.00  0.00     0.038 A 
HETATM   25  C22 UNK   900       4.425 -65.872 -51.702  1.00  0.00     0.015 A 
BRANCH  23  26
HETATM   26  O4  UNK   900       7.420 -67.970 -51.798  1.00  0.00    -0.318 OA
BRANCH  26  27
HETATM   27  C20 UNK   900       7.918 -68.648 -50.650  1.00  0.00     0.298 C 
HETATM   28  O3  UNK   900       6.961 -68.585 -49.573  1.00  0.00    -0.348 OA
HETATM   29  C19 UNK   900       7.427 -67.648 -48.588  1.00  0.00     0.179 C 
HETATM   30  C17 UNK   900       8.556 -66.875 -49.250  1.00  0.00     0.182 C 
HETATM   31  C18 UNK   900       9.164 -67.932 -50.151  1.00  0.00     0.205 C 
BRANCH  29  32
HETATM   32  C26 UNK   900       6.277 -66.764 -48.136  1.00  0.00     0.198 C 
BRANCH  32  33
HETATM   33  O7  UNK   900       6.770 -65.813 -47.207  1.00  0.00    -0.398 OA
HETATM   34  H33 UNK   900       7.738 -65.793 -47.303  1.00  0.00     0.209 HD
ENDBRANCH  32  33
ENDBRANCH  29  32
BRANCH  30  35
HETATM   35  O5  UNK   900       9.465 -66.351 -48.306  1.00  0.00    -0.390 OA
HETATM   36  H31 UNK   900       9.599 -67.031 -47.623  1.00  0.00     0.210 HD
ENDBRANCH  30  35
BRANCH  31  37
HETATM   37  O6  UNK   900       9.950 -68.834 -49.378  1.00  0.00    -0.388 OA
HETATM   38  H32 UNK   900      10.645 -69.185 -49.959  1.00  0.00     0.210 HD
ENDBRANCH  31  37
ENDBRANCH  26  27
ENDBRANCH  23  26
ENDBRANCH  17  20
TORSDOF 7
ENDMDL
MODEL 4
REMARK VINA RESULT:      -7.6      8.891     11.174
REMARK  7 active torsions:
REMARK  status: ('A' for Active; 'I' for Inactive)
REMARK    1  A    between atoms: O4_4  and  C20_28 
REMARK    2  A    between atoms: O4_4  and  C23_31 
REMARK    3  A    between atoms: O5_5  and  C17_25 
REMARK    4  A    between atoms: O6_6  and  C18_26 
REMARK    5  A    between atoms: O7_7  and  C26_34 
REMARK    6  A    between atoms: C14_22  and  C16_24 
REMARK    7  A    between atoms: C19_27  and  C26_34 
ROOT
HETATM    1  O1  UNK   900      34.444 -47.667 -61.333  1.00  0.00    -0.344 OA
HETATM    2  O2  UNK   900      30.556 -49.376 -63.431  1.00  0.00    -0.268 OA
HETATM    3  N1  UNK   900      31.034 -47.145 -63.554  1.00  0.00    -0.332 N 
HETATM    4  C1  UNK   900      33.871 -49.847 -60.498  1.00  0.00     0.024 C 
HETATM    5  C2  UNK   900      32.547 -49.904 -61.327  1.00  0.00     0.037 C 
HETATM    6  C3  UNK   900      31.455 -50.417 -60.331  1.00  0.00    -0.009 C 
HETATM    7  C4  UNK   900      34.299 -51.266 -60.107  1.00  0.00     0.012 C 
HETATM    8  C5  UNK   900      33.227 -51.918 -59.224  1.00  0.00    -0.018 C 
HETATM    9  C6  UNK   900      31.835 -51.843 -59.861  1.00  0.00     0.009 C 
HETATM   10  C7  UNK   900      34.923 -49.023 -61.245  1.00  0.00     0.129 C 
HETATM   11  C8  UNK   900      32.329 -48.575 -62.037  1.00  0.00     0.049 C 
HETATM   12  C9  UNK   900      30.019 -50.456 -60.847  1.00  0.00     0.011 C 
HETATM   13  C10 UNK   900      33.212 -47.557 -61.947  1.00  0.00     0.093 C 
HETATM   14  C11 UNK   900      33.599 -53.367 -58.905  1.00  0.00     0.010 C 
HETATM   15  C12 UNK   900      36.272 -48.952 -60.536  1.00  0.00     0.040 C 
HETATM   16  C13 UNK   900      31.223 -48.418 -63.048  1.00  0.00     0.254 C 
HETATM   17  C14 UNK   900      32.968 -46.248 -62.543  1.00  0.00     0.024 C 
HETATM   18  C15 UNK   900      31.874 -46.094 -63.306  1.00  0.00     0.106 C 
HETATM   19  H19 UNK   900      30.264 -46.986 -64.196  1.00  0.00     0.168 HD
ENDROOT
BRANCH  17  20
HETATM   20  C16 UNK   900      33.837 -45.073 -62.343  1.00  0.00    -0.022 A 
HETATM   21  C21 UNK   900      34.460 -44.471 -63.436  1.00  0.00     0.015 A 
HETATM   22  C24 UNK   900      35.283 -43.361 -63.247  1.00  0.00     0.038 A 
HETATM   23  C23 UNK   900      35.483 -42.853 -61.963  1.00  0.00     0.072 A 
HETATM   24  C25 UNK   900      34.860 -43.454 -60.869  1.00  0.00     0.038 A 
HETATM   25  C22 UNK   900      34.038 -44.565 -61.059  1.00  0.00     0.015 A 
BRANCH  23  26
HETATM   26  O4  UNK   900      36.287 -41.770 -61.778  1.00  0.00    -0.318 OA
BRANCH  26  27
HETATM   27  C20 UNK   900      36.409 -41.275 -60.450  1.00  0.00     0.298 C 
HETATM   28  O3  UNK   900      36.474 -39.834 -60.454  1.00  0.00    -0.348 OA
HETATM   29  C19 UNK   900      37.826 -39.427 -60.182  1.00  0.00     0.179 C 
HETATM   30  C17 UNK   900      38.676 -40.676 -60.338  1.00  0.00     0.182 C 
HETATM   31  C18 UNK   900      37.726 -41.756 -59.858  1.00  0.00     0.205 C 
BRANCH  29  32
HETATM   32  C26 UNK   900      38.223 -38.307 -61.128  1.00  0.00     0.198 C 
BRANCH  32  33
HETATM   33  O7  UNK   900      39.594 -38.456 -61.462  1.00  0.00    -0.398 OA
HETATM   34  H33 UNK   900      39.635 -38.696 -62.404  1.00  0.00     0.209 HD
ENDBRANCH  32  33
ENDBRANCH  29  32
BRANCH  30  35
HETATM   35  O5  UNK   900      39.868 -40.604 -59.585  1.00  0.00    -0.390 OA
HETATM   36  H31 UNK   900      40.496 -40.056 -60.086  1.00  0.00     0.210 HD
ENDBRANCH  30  35
BRANCH  31  37
HETATM   37  O6  UNK   900      37.642 -41.732 -58.437  1.00  0.00    -0.388 OA
HETATM   38  H32 UNK   900      37.780 -40.813 -58.153  1.00  0.00     0.210 HD
ENDBRANCH  31  37
ENDBRANCH  26  27
ENDBRANCH  23  26
ENDBRANCH  17  20
TORSDOF 7
ENDMDL
MODEL 5
REMARK VINA RESULT:      -7.5     25.902     28.879
REMARK  7 active torsions:
REMARK  status: ('A' for Active; 'I' for Inactive)
REMARK    1  A    between atoms: O4_4  and  C20_28 
REMARK    2  A    between atoms: O4_4  and  C23_31 
REMARK    3  A    between atoms: O5_5  and  C17_25 
REMARK    4  A    between atoms: O6_6  and  C18_26 
REMARK    5  A    between atoms: O7_7  and  C26_34 
REMARK    6  A    between atoms: C14_22  and  C16_24 
REMARK    7  A    between atoms: C19_27  and  C26_34 
ROOT
HETATM    1  O1  UNK   900      30.683 -50.635 -81.620  1.00  0.00    -0.344 OA
HETATM    2  O2  UNK   900      31.330 -51.119 -86.288  1.00  0.00    -0.268 OA
HETATM    3  N1  UNK   900      33.007 -51.672 -84.838  1.00  0.00    -0.332 N 
HETATM    4  C1  UNK   900      29.054 -49.391 -82.874  1.00  0.00     0.024 C 
HETATM    5  C2  UNK   900      29.732 -49.729 -84.243  1.00  0.00     0.037 C 
HETATM    6  C3  UNK   900      29.787 -48.376 -85.025  1.00  0.00    -0.009 C 
HETATM    7  C4  UNK   900      27.595 -48.984 -83.106  1.00  0.00     0.012 C 
HETATM    8  C5  UNK   900      27.527 -47.725 -83.981  1.00  0.00    -0.018 C 
HETATM    9  C6  UNK   900      28.342 -47.879 -85.271  1.00  0.00     0.009 C 
HETATM   10  C7  UNK   900      29.271 -50.537 -81.884  1.00  0.00     0.129 C 
HETATM   11  C8  UNK   900      31.026 -50.491 -83.999  1.00  0.00     0.049 C 
HETATM   12  C9  UNK   900      30.519 -48.386 -86.365  1.00  0.00     0.011 C 
HETATM   13  C10 UNK   900      31.444 -50.824 -82.757  1.00  0.00     0.093 C 
HETATM   14  C11 UNK   900      26.075 -47.364 -84.297  1.00  0.00     0.010 C 
HETATM   15  C12 UNK   900      28.600 -50.322 -80.531  1.00  0.00     0.040 C 
HETATM   16  C13 UNK   900      31.788 -51.098 -85.148  1.00  0.00     0.254 C 
HETATM   17  C14 UNK   900      32.728 -51.468 -82.506  1.00  0.00     0.024 C 
HETATM   18  C15 UNK   900      33.466 -51.846 -83.561  1.00  0.00     0.106 C 
HETATM   19  H19 UNK   900      33.577 -52.043 -85.593  1.00  0.00     0.168 HD
ENDROOT
BRANCH  17  20
HETATM   20  C16 UNK   900      33.281 -51.713 -81.159  1.00  0.00    -0.022 A 
HETATM   21  C21 UNK   900      34.404 -51.009 -80.728  1.00  0.00     0.015 A 
HETATM   22  C24 UNK   900      34.928 -51.240 -79.456  1.00  0.00     0.038 A 
HETATM   23  C23 UNK   900      34.327 -52.178 -78.615  1.00  0.00     0.072 A 
HETATM   24  C25 UNK   900      33.202 -52.883 -79.047  1.00  0.00     0.038 A 
HETATM   25  C22 UNK   900      32.680 -52.650 -80.319  1.00  0.00     0.015 A 
BRANCH  23  26
HETATM   26  O4  UNK   900      34.837 -52.406 -77.375  1.00  0.00    -0.318 OA
BRANCH  26  27
HETATM   27  C20 UNK   900      34.861 -51.307 -76.472  1.00  0.00     0.298 C 
HETATM   28  O3  UNK   900      35.622 -51.638 -75.294  1.00  0.00    -0.348 OA
HETATM   29  C19 UNK   900      34.717 -51.855 -74.198  1.00  0.00     0.179 C 
HETATM   30  C17 UNK   900      33.334 -51.974 -74.818  1.00  0.00     0.182 C 
HETATM   31  C18 UNK   900      33.444 -51.023 -75.995  1.00  0.00     0.205 C 
BRANCH  29  32
HETATM   32  C26 UNK   900      35.136 -53.093 -73.424  1.00  0.00     0.198 C 
BRANCH  32  33
HETATM   33  O7  UNK   900      34.485 -53.086 -72.164  1.00  0.00    -0.398 OA
HETATM   34  H33 UNK   900      33.558 -52.836 -72.322  1.00  0.00     0.209 HD
ENDBRANCH  32  33
ENDBRANCH  29  32
BRANCH  30  35
HETATM   35  O5  UNK   900      32.313 -51.623 -73.908  1.00  0.00    -0.390 OA
HETATM   36  H31 UNK   900      32.734 -51.467 -73.045  1.00  0.00     0.210 HD
ENDBRANCH  30  35
BRANCH  31  37
HETATM   37  O6  UNK   900      33.358 -49.677 -75.540  1.00  0.00    -0.388 OA
HETATM   38  H32 UNK   900      34.049 -49.170 -76.000  1.00  0.00     0.210 HD
ENDBRANCH  31  37
ENDBRANCH  26  27
ENDBRANCH  23  26
ENDBRANCH  17  20
TORSDOF 7
ENDMDL
MODEL 6
REMARK VINA RESULT:      -7.3      3.045      9.180
REMARK  7 active torsions:
REMARK  status: ('A' for Active; 'I' for Inactive)
REMARK    1  A    between atoms: O4_4  and  C20_28 
REMARK    2  A    between atoms: O4_4  and  C23_31 
REMARK    3  A    between atoms: O5_5  and  C17_25 
REMARK    4  A    between atoms: O6_6  and  C18_26 
REMARK    5  A    between atoms: O7_7  and  C26_34 
REMARK    6  A    between atoms: C14_22  and  C16_24 
REMARK    7  A    between atoms: C19_27  and  C26_34 
ROOT
HETATM    1  O1  UNK   900      38.234 -34.044 -59.510  1.00  0.00    -0.344 OA
HETATM    2  O2  UNK   900      36.627 -29.600 -59.834  1.00  0.00    -0.268 OA
HETATM    3  N1  UNK   900      35.306 -31.229 -58.928  1.00  0.00    -0.332 N 
HETATM    4  C1  UNK   900      39.533 -32.742 -61.057  1.00  0.00     0.024 C 
HETATM    5  C2  UNK   900      38.590 -31.501 -60.929  1.00  0.00     0.037 C 
HETATM    6  C3  UNK   900      38.340 -31.016 -62.395  1.00  0.00    -0.009 C 
HETATM    7  C4  UNK   900      40.901 -32.299 -61.587  1.00  0.00     0.012 C 
HETATM    8  C5  UNK   900      40.754 -31.683 -62.985  1.00  0.00    -0.018 C 
HETATM    9  C6  UNK   900      39.689 -30.580 -63.016  1.00  0.00     0.009 C 
HETATM   10  C7  UNK   900      39.556 -33.522 -59.740  1.00  0.00     0.129 C 
HETATM   11  C8  UNK   900      37.393 -31.856 -60.058  1.00  0.00     0.049 C 
HETATM   12  C9  UNK   900      37.342 -29.876 -62.581  1.00  0.00     0.011 C 
HETATM   13  C10 UNK   900      37.255 -33.070 -59.483  1.00  0.00     0.093 C 
HETATM   14  C11 UNK   900      42.098 -31.152 -63.485  1.00  0.00     0.010 C 
HETATM   15  C12 UNK   900      40.493 -34.725 -59.750  1.00  0.00     0.040 C 
HETATM   16  C13 UNK   900      36.419 -30.791 -59.622  1.00  0.00     0.254 C 
HETATM   17  C14 UNK   900      36.067 -33.452 -58.726  1.00  0.00     0.024 C 
HETATM   18  C15 UNK   900      35.132 -32.517 -58.500  1.00  0.00     0.106 C 
HETATM   19  H19 UNK   900      34.599 -30.550 -58.665  1.00  0.00     0.168 HD
ENDROOT
BRANCH  17  20
HETATM   20  C16 UNK   900      35.817 -34.812 -58.211  1.00  0.00    -0.022 A 
HETATM   21  C21 UNK   900      35.224 -35.771 -59.031  1.00  0.00     0.015 A 
HETATM   22  C24 UNK   900      34.986 -37.056 -58.543  1.00  0.00     0.038 A 
HETATM   23  C23 UNK   900      35.341 -37.381 -57.233  1.00  0.00     0.072 A 
HETATM   24  C25 UNK   900      35.935 -36.422 -56.412  1.00  0.00     0.038 A 
HETATM   25  C22 UNK   900      36.172 -35.137 -56.901  1.00  0.00     0.015 A 
BRANCH  23  26
HETATM   26  O4  UNK   900      35.109 -38.634 -56.756  1.00  0.00    -0.318 OA
BRANCH  26  27
HETATM   27  C20 UNK   900      36.243 -39.462 -56.529  1.00  0.00     0.298 C 
HETATM   28  O3  UNK   900      37.348 -39.039 -57.352  1.00  0.00    -0.348 OA
HETATM   29  C19 UNK   900      37.518 -39.982 -58.425  1.00  0.00     0.179 C 
HETATM   30  C17 UNK   900      36.261 -40.835 -58.433  1.00  0.00     0.182 C 
HETATM   31  C18 UNK   900      35.915 -40.885 -56.957  1.00  0.00     0.205 C 
BRANCH  29  32
HETATM   32  C26 UNK   900      37.748 -39.237 -59.729  1.00  0.00     0.198 C 
BRANCH  32  33
HETATM   33  O7  UNK   900      36.632 -39.451 -60.580  1.00  0.00    -0.398 OA
HETATM   34  H33 UNK   900      35.882 -38.966 -60.195  1.00  0.00     0.209 HD
ENDBRANCH  32  33
ENDBRANCH  29  32
BRANCH  30  35
HETATM   35  O5  UNK   900      36.487 -42.108 -58.999  1.00  0.00    -0.390 OA
HETATM   36  H31 UNK   900      35.790 -42.701 -58.671  1.00  0.00     0.210 HD
ENDBRANCH  30  35
BRANCH  31  37
HETATM   37  O6  UNK   900      36.783 -41.793 -56.286  1.00  0.00    -0.388 OA
HETATM   38  H32 UNK   900      36.227 -42.388 -55.756  1.00  0.00     0.210 HD
ENDBRANCH  31  37
ENDBRANCH  26  27
ENDBRANCH  23  26
ENDBRANCH  17  20
TORSDOF 7
ENDMDL
MODEL 7
REMARK VINA RESULT:      -7.2     43.045     47.229
REMARK  7 active torsions:
REMARK  status: ('A' for Active; 'I' for Inactive)
REMARK    1  A    between atoms: O4_4  and  C20_28 
REMARK    2  A    between atoms: O4_4  and  C23_31 
REMARK    3  A    between atoms: O5_5  and  C17_25 
REMARK    4  A    between atoms: O6_6  and  C18_26 
REMARK    5  A    between atoms: O7_7  and  C26_34 
REMARK    6  A    between atoms: C14_22  and  C16_24 
REMARK    7  A    between atoms: C19_27  and  C26_34 
ROOT
HETATM    1  O1  UNK   900       3.371 -70.272 -53.027  1.00  0.00    -0.344 OA
HETATM    2  O2  UNK   900      -1.097 -69.362 -54.314  1.00  0.00    -0.268 OA
HETATM    3  N1  UNK   900      -0.020 -67.967 -52.859  1.00  0.00    -0.332 N 
HETATM    4  C1  UNK   900       2.318 -72.201 -54.000  1.00  0.00     0.024 C 
HETATM    5  C2  UNK   900       0.931 -71.488 -54.110  1.00  0.00     0.037 C 
HETATM    6  C3  UNK   900      -0.113 -72.522 -53.575  1.00  0.00    -0.009 C 
HETATM    7  C4  UNK   900       2.369 -73.385 -54.972  1.00  0.00     0.012 C 
HETATM    8  C5  UNK   900       1.289 -74.414 -54.613  1.00  0.00    -0.018 C 
HETATM    9  C6  UNK   900      -0.098 -73.770 -54.491  1.00  0.00     0.009 C 
HETATM   10  C7  UNK   900       3.447 -71.178 -54.144  1.00  0.00     0.129 C 
HETATM   11  C8  UNK   900       1.007 -70.115 -53.457  1.00  0.00     0.049 C 
HETATM   12  C9  UNK   900      -1.557 -72.042 -53.454  1.00  0.00     0.011 C 
HETATM   13  C10 UNK   900       2.149 -69.637 -52.917  1.00  0.00     0.093 C 
HETATM   14  C11 UNK   900       1.269 -75.554 -55.632  1.00  0.00     0.010 C 
HETATM   15  C12 UNK   900       4.844 -71.789 -54.101  1.00  0.00     0.040 C 
HETATM   16  C13 UNK   900      -0.137 -69.142 -53.580  1.00  0.00     0.254 C 
HETATM   17  C14 UNK   900       2.211 -68.365 -52.204  1.00  0.00     0.024 C 
HETATM   18  C15 UNK   900       1.113 -67.594 -52.189  1.00  0.00     0.106 C 
HETATM   19  H19 UNK   900      -0.793 -67.310 -52.872  1.00  0.00     0.168 HD
ENDROOT
BRANCH  17  20
HETATM   20  C16 UNK   900       3.400 -67.881 -51.477  1.00  0.00    -0.022 A 
HETATM   21  C21 UNK   900       4.076 -66.746 -51.923  1.00  0.00     0.015 A 
HETATM   22  C24 UNK   900       5.202 -66.289 -51.236  1.00  0.00     0.038 A 
HETATM   23  C23 UNK   900       5.651 -66.969 -50.104  1.00  0.00     0.072 A 
HETATM   24  C25 UNK   900       4.974 -68.105 -49.657  1.00  0.00     0.038 A 
HETATM   25  C22 UNK   900       3.849 -68.561 -50.344  1.00  0.00     0.015 A 
BRANCH  23  26
HETATM   26  O4  UNK   900       6.749 -66.525 -49.434  1.00  0.00    -0.318 OA
BRANCH  26  27
HETATM   27  C20 UNK   900       7.979 -66.506 -50.148  1.00  0.00     0.298 C 
HETATM   28  O3  UNK   900       8.091 -67.671 -50.990  1.00  0.00    -0.348 OA
HETATM   29  C19 UNK   900       9.037 -68.582 -50.404  1.00  0.00     0.179 C 
HETATM   30  C17 UNK   900       9.266 -68.087 -48.985  1.00  0.00     0.182 C 
HETATM   31  C18 UNK   900       9.131 -66.587 -49.158  1.00  0.00     0.205 C 
BRANCH  29  32
HETATM   32  C26 UNK   900       8.492 -69.998 -50.466  1.00  0.00     0.198 C 
BRANCH  32  33
HETATM   33  O7  UNK   900       9.146 -70.783 -49.483  1.00  0.00    -0.398 OA
HETATM   34  H33 UNK   900       9.851 -71.279 -49.935  1.00  0.00     0.209 HD
ENDBRANCH  32  33
ENDBRANCH  29  32
BRANCH  30  35
HETATM   35  O5  UNK   900      10.525 -68.483 -48.483  1.00  0.00    -0.390 OA
HETATM   36  H31 UNK   900      10.366 -69.010 -47.681  1.00  0.00     0.210 HD
ENDBRANCH  30  35
BRANCH  31  37
HETATM   37  O6  UNK   900      10.310 -66.060 -49.759  1.00  0.00    -0.388 OA
HETATM   38  H32 UNK   900      11.070 -66.420 -49.272  1.00  0.00     0.210 HD
ENDBRANCH  31  37
ENDBRANCH  26  27
ENDBRANCH  23  26
ENDBRANCH  17  20
TORSDOF 7
ENDMDL
MODEL 8
REMARK VINA RESULT:      -7.2     14.922     19.736
REMARK  7 active torsions:
REMARK  status: ('A' for Active; 'I' for Inactive)
REMARK    1  A    between atoms: O4_4  and  C20_28 
REMARK    2  A    between atoms: O4_4  and  C23_31 
REMARK    3  A    between atoms: O5_5  and  C17_25 
REMARK    4  A    between atoms: O6_6  and  C18_26 
REMARK    5  A    between atoms: O7_7  and  C26_34 
REMARK    6  A    between atoms: C14_22  and  C16_24 
REMARK    7  A    between atoms: C19_27  and  C26_34 
ROOT
HETATM    1  O1  UNK   900      22.984 -27.710 -50.915  1.00  0.00    -0.344 OA
HETATM    2  O2  UNK   900      26.576 -26.511 -53.761  1.00  0.00    -0.268 OA
HETATM    3  N1  UNK   900      26.669 -28.452 -52.558  1.00  0.00    -0.332 N 
HETATM    4  C1  UNK   900      22.905 -25.383 -51.510  1.00  0.00     0.024 C 
HETATM    5  C2  UNK   900      24.269 -25.449 -52.271  1.00  0.00     0.037 C 
HETATM    6  C3  UNK   900      25.072 -24.193 -51.795  1.00  0.00    -0.009 C 
HETATM    7  C4  UNK   900      22.102 -24.169 -51.991  1.00  0.00     0.012 C 
HETATM    8  C5  UNK   900      22.866 -22.873 -51.687  1.00  0.00    -0.018 C 
HETATM    9  C6  UNK   900      24.304 -22.917 -52.217  1.00  0.00     0.009 C 
HETATM   10  C7  UNK   900      22.185 -26.730 -51.605  1.00  0.00     0.129 C 
HETATM   11  C8  UNK   900      24.888 -26.828 -52.094  1.00  0.00     0.049 C 
HETATM   12  C9  UNK   900      26.510 -24.067 -52.293  1.00  0.00     0.011 C 
HETATM   13  C10 UNK   900      24.273 -27.811 -51.401  1.00  0.00     0.093 C 
HETATM   14  C11 UNK   900      22.119 -21.662 -52.246  1.00  0.00     0.010 C 
HETATM   15  C12 UNK   900      20.815 -26.749 -50.934  1.00  0.00     0.040 C 
HETATM   16  C13 UNK   900      26.118 -27.223 -52.871  1.00  0.00     0.254 C 
HETATM   17  C14 UNK   900      24.899 -29.103 -51.143  1.00  0.00     0.024 C 
HETATM   18  C15 UNK   900      26.083 -29.359 -51.719  1.00  0.00     0.106 C 
HETATM   19  H19 UNK   900      27.529 -28.731 -53.021  1.00  0.00     0.168 HD
ENDROOT
BRANCH  17  20
HETATM   20  C16 UNK   900      24.320 -30.143 -50.270  1.00  0.00    -0.022 A 
HETATM   21  C21 UNK   900      25.000 -30.546 -49.121  1.00  0.00     0.015 A 
HETATM   22  C24 UNK   900      24.454 -31.530 -48.296  1.00  0.00     0.038 A 
HETATM   23  C23 UNK   900      23.228 -32.110 -48.621  1.00  0.00     0.072 A 
HETATM   24  C25 UNK   900      22.548 -31.707 -49.770  1.00  0.00     0.038 A 
HETATM   25  C22 UNK   900      23.094 -30.723 -50.595  1.00  0.00     0.015 A 
BRANCH  23  26
HETATM   26  O4  UNK   900      22.696 -33.071 -47.818  1.00  0.00    -0.318 OA
BRANCH  26  27
HETATM   27  C20 UNK   900      21.348 -32.891 -47.399  1.00  0.00     0.298 C 
HETATM   28  O3  UNK   900      21.284 -31.986 -46.279  1.00  0.00    -0.348 OA
HETATM   29  C19 UNK   900      21.014 -32.740 -45.085  1.00  0.00     0.179 C 
HETATM   30  C17 UNK   900      21.242 -34.197 -45.452  1.00  0.00     0.182 C 
HETATM   31  C18 UNK   900      20.799 -34.221 -46.902  1.00  0.00     0.205 C 
BRANCH  29  32
HETATM   32  C26 UNK   900      21.912 -32.256 -43.959  1.00  0.00     0.198 C 
BRANCH  32  33
HETATM   33  O7  UNK   900      22.004 -33.276 -42.977  1.00  0.00    -0.398 OA
HETATM   34  H33 UNK   900      21.260 -33.150 -42.364  1.00  0.00     0.209 HD
ENDBRANCH  32  33
ENDBRANCH  29  32
BRANCH  30  35
HETATM   35  O5  UNK   900      20.504 -35.073 -44.626  1.00  0.00    -0.390 OA
HETATM   36  H31 UNK   900      20.151 -34.549 -43.887  1.00  0.00     0.210 HD
ENDBRANCH  30  35
BRANCH  31  37
HETATM   37  O6  UNK   900      19.378 -34.203 -46.976  1.00  0.00    -0.388 OA
HETATM   38  H32 UNK   900      19.056 -35.030 -46.579  1.00  0.00     0.210 HD
ENDBRANCH  31  37
ENDBRANCH  26  27
ENDBRANCH  23  26
ENDBRANCH  17  20
TORSDOF 7
ENDMDL
MODEL 9
REMARK VINA RESULT:      -7.2     15.983     19.053
REMARK  7 active torsions:
REMARK  status: ('A' for Active; 'I' for Inactive)
REMARK    1  A    between atoms: O4_4  and  C20_28 
REMARK    2  A    between atoms: O4_4  and  C23_31 
REMARK    3  A    between atoms: O5_5  and  C17_25 
REMARK    4  A    between atoms: O6_6  and  C18_26 
REMARK    5  A    between atoms: O7_7  and  C26_34 
REMARK    6  A    between atoms: C14_22  and  C16_24 
REMARK    7  A    between atoms: C19_27  and  C26_34 
ROOT
HETATM    1  O1  UNK   900      21.374 -28.315 -49.886  1.00  0.00    -0.344 OA
HETATM    2  O2  UNK   900      25.043 -31.288 -49.513  1.00  0.00    -0.268 OA
HETATM    3  N1  UNK   900      25.154 -29.510 -50.944  1.00  0.00    -0.332 N 
HETATM    4  C1  UNK   900      20.735 -30.385 -48.847  1.00  0.00     0.024 C 
HETATM    5  C2  UNK   900      22.144 -31.026 -49.072  1.00  0.00     0.037 C 
HETATM    6  C3  UNK   900      21.864 -32.461 -49.627  1.00  0.00    -0.009 C 
HETATM    7  C4  UNK   900      20.003 -31.129 -47.725  1.00  0.00     0.012 C 
HETATM    8  C5  UNK   900      19.787 -32.598 -48.114  1.00  0.00    -0.018 C 
HETATM    9  C6  UNK   900      21.092 -33.271 -48.557  1.00  0.00     0.009 C 
HETATM   10  C7  UNK   900      20.871 -28.873 -48.657  1.00  0.00     0.129 C 
HETATM   11  C8  UNK   900      23.012 -30.079 -49.888  1.00  0.00     0.049 C 
HETATM   12  C9  UNK   900      23.078 -33.281 -50.056  1.00  0.00     0.011 C 
HETATM   13  C10 UNK   900      22.575 -28.865 -50.289  1.00  0.00     0.093 C 
HETATM   14  C11 UNK   900      19.141 -33.372 -46.964  1.00  0.00     0.010 C 
HETATM   15  C12 UNK   900      19.550 -28.163 -48.378  1.00  0.00     0.040 C 
HETATM   16  C13 UNK   900      24.477 -30.368 -50.097  1.00  0.00     0.254 C 
HETATM   17  C14 UNK   900      23.362 -27.990 -51.151  1.00  0.00     0.024 C 
HETATM   18  C15 UNK   900      24.614 -28.363 -51.459  1.00  0.00     0.106 C 
HETATM   19  H19 UNK   900      26.129 -29.703 -51.154  1.00  0.00     0.168 HD
ENDROOT
BRANCH  17  20
HETATM   20  C16 UNK   900      22.861 -26.727 -51.727  1.00  0.00    -0.022 A 
HETATM   21  C21 UNK   900      23.719 -25.903 -52.455  1.00  0.00     0.015 A 
HETATM   22  C24 UNK   900      23.245 -24.708 -52.998  1.00  0.00     0.038 A 
HETATM   23  C23 UNK   900      21.913 -24.338 -52.812  1.00  0.00     0.072 A 
HETATM   24  C25 UNK   900      21.055 -25.162 -52.084  1.00  0.00     0.038 A 
HETATM   25  C22 UNK   900      21.529 -26.357 -51.541  1.00  0.00     0.015 A 
BRANCH  23  26
HETATM   26  O4  UNK   900      21.451 -23.173 -53.340  1.00  0.00    -0.318 OA
BRANCH  26  27
HETATM   27  C20 UNK   900      20.491 -23.271 -54.385  1.00  0.00     0.298 C 
HETATM   28  O3  UNK   900      20.927 -22.529 -55.542  1.00  0.00    -0.348 OA
HETATM   29  C19 UNK   900      20.153 -21.321 -55.641  1.00  0.00     0.179 C 
HETATM   30  C17 UNK   900      19.439 -21.174 -54.308  1.00  0.00     0.182 C 
HETATM   31  C18 UNK   900      19.192 -22.622 -53.931  1.00  0.00     0.205 C 
BRANCH  29  32
HETATM   32  C26 UNK   900      21.066 -20.152 -55.966  1.00  0.00     0.198 C 
BRANCH  32  33
HETATM   33  O7  UNK   900      20.992 -19.207 -54.910  1.00  0.00    -0.398 OA
HETATM   34  H33 UNK   900      21.613 -19.499 -54.221  1.00  0.00     0.209 HD
ENDBRANCH  32  33
ENDBRANCH  29  32
BRANCH  30  35
HETATM   35  O5  UNK   900      18.254 -20.415 -54.422  1.00  0.00    -0.390 OA
HETATM   36  H31 UNK   900      18.053 -20.329 -55.369  1.00  0.00     0.210 HD
ENDBRANCH  30  35
BRANCH  31  37
HETATM   37  O6  UNK   900      18.109 -23.144 -54.694  1.00  0.00    -0.388 OA
HETATM   38  H32 UNK   900      17.751 -22.415 -55.227  1.00  0.00     0.210 HD
ENDBRANCH  31  37
ENDBRANCH  26  27
ENDBRANCH  23  26
ENDBRANCH  17  20
TORSDOF 7
ENDMDL
