MODEL 1
REMARK VINA RESULT:      -7.6      0.000      0.000
REMARK  3 active torsions:
REMARK  status: ('A' for Active; 'I' for Inactive)
REMARK    1  A    between atoms: O1_1  and  C5_8 
REMARK    2  A    between atoms: O2_2  and  C6_9 
REMARK    3  A    between atoms: O3_3  and  C11_14 
ROOT
HETATM    1  C1  UNK   900      23.415 -39.520 -68.097  1.00  0.00    -0.028 C 
HETATM    2  C2  UNK   900      23.012 -40.560 -69.165  1.00  0.00    -0.008 C 
HETATM    3  C3  UNK   900      22.695 -38.412 -69.013  1.00  0.00     0.031 C 
HETATM    4  C4  UNK   900      21.267 -38.771 -68.835  1.00  0.00     0.033 C 
HETATM    5  C5  UNK   900      21.417 -40.316 -69.053  1.00  0.00     0.132 C 
HETATM    6  C6  UNK   900      23.265 -38.585 -70.436  1.00  0.00     0.124 C 
HETATM    7  C7  UNK   900      23.554 -40.058 -70.509  1.00  0.00     0.044 C 
HETATM    8  C8  UNK   900      20.920 -37.995 -67.476  1.00  0.00    -0.015 C 
HETATM    9  C9  UNK   900      24.489 -38.595 -67.582  1.00  0.00     0.013 C 
HETATM   10  C10 UNK   900      23.064 -40.288 -66.756  1.00  0.00     0.016 C 
HETATM   11  C11 UNK   900      22.114 -37.665 -66.376  1.00  0.00     0.126 C 
HETATM   12  C12 UNK   900      23.378 -42.036 -69.019  1.00  0.00     0.019 C 
HETATM   13  C13 UNK   900      23.695 -37.491 -66.715  1.00  0.00     0.033 C 
HETATM   14  C14 UNK   900      20.328 -36.618 -67.933  1.00  0.00     0.018 C 
HETATM   15  C15 UNK   900      19.759 -38.722 -66.765  1.00  0.00     0.018 C 
ENDROOT
BRANCH   5  16
HETATM   16  O1  UNK   900      20.770 -40.698 -70.264  1.00  0.00    -0.394 OA
HETATM   17  H24 UNK   900      20.709 -39.904 -70.823  1.00  0.00     0.210 HD
ENDBRANCH   5  16
BRANCH   6  18
HETATM   18  O2  UNK   900      22.358 -38.180 -71.444  1.00  0.00    -0.395 OA
HETATM   19  H25 UNK   900      21.459 -38.293 -71.092  1.00  0.00     0.210 HD
ENDBRANCH   6  18
BRANCH  11  20
HETATM   20  O3  UNK   900      21.779 -36.465 -65.646  1.00  0.00    -0.395 OA
HETATM   21  H26 UNK   900      22.575 -35.909 -65.608  1.00  0.00     0.210 HD
ENDBRANCH  11  20
TORSDOF 3
ENDMDL
MODEL 2
REMARK VINA RESULT:      -7.6      1.831      4.575
REMARK  3 active torsions:
REMARK  status: ('A' for Active; 'I' for Inactive)
REMARK    1  A    between atoms: O1_1  and  C5_8 
REMARK    2  A    between atoms: O2_2  and  C6_9 
REMARK    3  A    between atoms: O3_3  and  C11_14 
ROOT
HETATM    1  C1  UNK   900      21.684 -37.648 -67.708  1.00  0.00    -0.028 C 
HETATM    2  C2  UNK   900      21.076 -38.300 -66.448  1.00  0.00    -0.008 C 
HETATM    3  C3  UNK   900      23.073 -37.564 -66.903  1.00  0.00     0.031 C 
HETATM    4  C4  UNK   900      23.466 -38.993 -66.852  1.00  0.00     0.033 C 
HETATM    5  C5  UNK   900      22.078 -39.570 -66.409  1.00  0.00     0.132 C 
HETATM    6  C6  UNK   900      22.752 -36.900 -65.548  1.00  0.00     0.124 C 
HETATM    7  C7  UNK   900      21.344 -37.350 -65.275  1.00  0.00     0.044 C 
HETATM    8  C8  UNK   900      24.200 -39.162 -68.266  1.00  0.00    -0.015 C 
HETATM    9  C9  UNK   900      21.901 -36.375 -68.488  1.00  0.00     0.013 C 
HETATM   10  C10 UNK   900      21.091 -38.563 -68.858  1.00  0.00     0.016 C 
HETATM   11  C11 UNK   900      23.796 -38.181 -69.538  1.00  0.00     0.126 C 
HETATM   12  C12 UNK   900      19.610 -38.726 -66.398  1.00  0.00     0.019 C 
HETATM   13  C13 UNK   900      23.181 -36.680 -69.420  1.00  0.00     0.033 C 
HETATM   14  C14 UNK   900      25.720 -38.924 -67.969  1.00  0.00     0.018 C 
HETATM   15  C15 UNK   900      24.099 -40.638 -68.711  1.00  0.00     0.018 C 
ENDROOT
BRANCH   5  16
HETATM   16  O1  UNK   900      22.171 -40.089 -65.084  1.00  0.00    -0.394 OA
HETATM   17  H24 UNK   900      23.114 -40.224 -64.891  1.00  0.00     0.210 HD
ENDBRANCH   5  16
BRANCH   6  18
HETATM   18  O2  UNK   900      23.637 -37.299 -64.517  1.00  0.00    -0.395 OA
HETATM   19  H25 UNK   900      23.962 -38.188 -64.739  1.00  0.00     0.210 HD
ENDBRANCH   6  18
BRANCH  11  20
HETATM   20  O3  UNK   900      24.939 -38.022 -70.406  1.00  0.00    -0.395 OA
HETATM   21  H26 UNK   900      25.728 -37.934 -69.845  1.00  0.00     0.210 HD
ENDBRANCH  11  20
TORSDOF 3
ENDMDL
MODEL 3
REMARK VINA RESULT:      -7.6      2.052      3.985
REMARK  3 active torsions:
REMARK  status: ('A' for Active; 'I' for Inactive)
REMARK    1  A    between atoms: O1_1  and  C5_8 
REMARK    2  A    between atoms: O2_2  and  C6_9 
REMARK    3  A    between atoms: O3_3  and  C11_14 
ROOT
HETATM    1  C1  UNK   900      22.143 -38.246 -68.711  1.00  0.00    -0.028 C 
HETATM    2  C2  UNK   900      21.476 -39.493 -68.091  1.00  0.00    -0.008 C 
HETATM    3  C3  UNK   900      23.270 -39.233 -69.295  1.00  0.00     0.031 C 
HETATM    4  C4  UNK   900      22.510 -39.955 -70.344  1.00  0.00     0.033 C 
HETATM    5  C5  UNK   900      21.237 -40.275 -69.488  1.00  0.00     0.132 C 
HETATM    6  C6  UNK   900      23.762 -40.084 -68.106  1.00  0.00     0.124 C 
HETATM    7  C7  UNK   900      22.539 -40.197 -67.241  1.00  0.00     0.044 C 
HETATM    8  C8  UNK   900      22.642 -38.939 -71.576  1.00  0.00    -0.015 C 
HETATM    9  C9  UNK   900      23.077 -37.081 -68.499  1.00  0.00     0.013 C 
HETATM   10  C10 UNK   900      20.891 -37.476 -69.303  1.00  0.00     0.016 C 
HETATM   11  C11 UNK   900      22.867 -37.320 -71.302  1.00  0.00     0.126 C 
HETATM   12  C12 UNK   900      20.193 -39.386 -67.268  1.00  0.00     0.019 C 
HETATM   13  C13 UNK   900      23.558 -36.669 -69.983  1.00  0.00     0.033 C 
HETATM   14  C14 UNK   900      23.884 -39.441 -72.388  1.00  0.00     0.018 C 
HETATM   15  C15 UNK   900      21.434 -39.132 -72.518  1.00  0.00     0.018 C 
ENDROOT
BRANCH   5  16
HETATM   16  O1  UNK   900      21.147 -41.680 -69.262  1.00  0.00    -0.394 OA
HETATM   17  H24 UNK   900      20.278 -41.853 -68.861  1.00  0.00     0.210 HD
ENDBRANCH   5  16
BRANCH   6  18
HETATM   18  O2  UNK   900      24.241 -41.356 -68.502  1.00  0.00    -0.395 OA
HETATM   19  H25 UNK   900      24.451 -41.307 -69.451  1.00  0.00     0.210 HD
ENDBRANCH   6  18
BRANCH  11  20
HETATM   20  O3  UNK   900      23.602 -36.743 -72.402  1.00  0.00    -0.395 OA
HETATM   21  H26 UNK   900      22.980 -36.608 -73.137  1.00  0.00     0.210 HD
ENDBRANCH  11  20
TORSDOF 3
ENDMDL
MODEL 4
REMARK VINA RESULT:      -7.5      1.614      2.236
REMARK  3 active torsions:
REMARK  status: ('A' for Active; 'I' for Inactive)
REMARK    1  A    between atoms: O1_1  and  C5_8 
REMARK    2  A    between atoms: O2_2  and  C6_9 
REMARK    3  A    between atoms: O3_3  and  C11_14 
ROOT
HETATM    1  C1  UNK   900      22.955 -39.197 -68.685  1.00  0.00    -0.028 C 
HETATM    2  C2  UNK   900      22.245 -39.766 -69.933  1.00  0.00    -0.008 C 
HETATM    3  C3  UNK   900      23.735 -38.201 -69.677  1.00  0.00     0.031 C 
HETATM    4  C4  UNK   900      22.644 -37.282 -70.083  1.00  0.00     0.033 C 
HETATM    5  C5  UNK   900      21.565 -38.373 -70.396  1.00  0.00     0.132 C 
HETATM    6  C6  UNK   900      24.334 -39.079 -70.794  1.00  0.00     0.124 C 
HETATM    7  C7  UNK   900      23.340 -40.199 -70.915  1.00  0.00     0.044 C 
HETATM    8  C8  UNK   900      22.662 -36.228 -68.875  1.00  0.00    -0.015 C 
HETATM    9  C9  UNK   900      24.096 -39.341 -67.709  1.00  0.00     0.013 C 
HETATM   10  C10 UNK   900      21.750 -39.070 -67.663  1.00  0.00     0.016 C 
HETATM   11  C11 UNK   900      23.214 -36.682 -67.380  1.00  0.00     0.126 C 
HETATM   12  C12 UNK   900      21.222 -40.895 -69.823  1.00  0.00     0.019 C 
HETATM   13  C13 UNK   900      24.288 -37.866 -67.085  1.00  0.00     0.033 C 
HETATM   14  C14 UNK   900      23.581 -35.059 -69.366  1.00  0.00     0.018 C 
HETATM   15  C15 UNK   900      21.256 -35.607 -68.731  1.00  0.00     0.018 C 
ENDROOT
BRANCH   5  16
HETATM   16  O1  UNK   900      21.292 -38.395 -71.796  1.00  0.00    -0.394 OA
HETATM   17  H24 UNK   900      21.852 -37.717 -72.210  1.00  0.00     0.210 HD
ENDBRANCH   5  16
BRANCH   6  18
HETATM   18  O2  UNK   900      24.487 -38.382 -72.017  1.00  0.00    -0.395 OA
HETATM   19  H25 UNK   900      24.714 -39.037 -72.700  1.00  0.00     0.210 HD
ENDBRANCH   6  18
BRANCH  11  20
HETATM   20  O3  UNK   900      23.766 -35.533 -66.701  1.00  0.00    -0.395 OA
HETATM   21  H26 UNK   900      24.643 -35.357 -67.081  1.00  0.00     0.210 HD
ENDBRANCH  11  20
TORSDOF 3
ENDMDL
MODEL 5
REMARK VINA RESULT:      -7.5      2.409      4.800
REMARK  3 active torsions:
REMARK  status: ('A' for Active; 'I' for Inactive)
REMARK    1  A    between atoms: O1_1  and  C5_8 
REMARK    2  A    between atoms: O2_2  and  C6_9 
REMARK    3  A    between atoms: O3_3  and  C11_14 
ROOT
HETATM    1  C1  UNK   900      23.395 -36.396 -67.883  1.00  0.00    -0.028 C 
HETATM    2  C2  UNK   900      23.125 -34.916 -68.233  1.00  0.00    -0.008 C 
HETATM    3  C3  UNK   900      21.906 -36.711 -68.400  1.00  0.00     0.031 C 
HETATM    4  C4  UNK   900      22.059 -36.517 -69.863  1.00  0.00     0.033 C 
HETATM    5  C5  UNK   900      22.839 -35.159 -69.808  1.00  0.00     0.132 C 
HETATM    6  C6  UNK   900      20.974 -35.717 -67.678  1.00  0.00     0.124 C 
HETATM    7  C7  UNK   900      21.845 -34.506 -67.497  1.00  0.00     0.044 C 
HETATM    8  C8  UNK   900      22.610 -37.955 -70.309  1.00  0.00    -0.015 C 
HETATM    9  C9  UNK   900      23.396 -37.456 -66.811  1.00  0.00     0.013 C 
HETATM   10  C10 UNK   900      24.861 -36.595 -68.451  1.00  0.00     0.016 C 
HETATM   11  C11 UNK   900      23.446 -38.899 -69.235  1.00  0.00     0.126 C 
HETATM   12  C12 UNK   900      24.181 -33.836 -68.003  1.00  0.00     0.019 C 
HETATM   13  C13 UNK   900      23.299 -38.850 -67.616  1.00  0.00     0.033 C 
HETATM   14  C14 UNK   900      21.338 -38.765 -70.735  1.00  0.00     0.018 C 
HETATM   15  C15 UNK   900      23.441 -37.795 -71.600  1.00  0.00     0.018 C 
ENDROOT
BRANCH   5  16
HETATM   16  O1  UNK   900      22.026 -34.113 -70.332  1.00  0.00    -0.394 OA
HETATM   17  H24 UNK   900      22.043 -33.383 -69.690  1.00  0.00     0.210 HD
ENDBRANCH   5  16
BRANCH   6  18
HETATM   18  O2  UNK   900      19.808 -35.416 -68.424  1.00  0.00    -0.395 OA
HETATM   19  H25 UNK   900      20.026 -35.529 -69.365  1.00  0.00     0.210 HD
ENDBRANCH   6  18
BRANCH  11  20
HETATM   20  O3  UNK   900      23.249 -40.291 -69.561  1.00  0.00    -0.395 OA
HETATM   21  H26 UNK   900      22.397 -40.567 -69.183  1.00  0.00     0.210 HD
ENDBRANCH  11  20
TORSDOF 3
ENDMDL
MODEL 6
REMARK VINA RESULT:      -6.9     13.881     15.788
REMARK  3 active torsions:
REMARK  status: ('A' for Active; 'I' for Inactive)
REMARK    1  A    between atoms: O1_1  and  C5_8 
REMARK    2  A    between atoms: O2_2  and  C6_9 
REMARK    3  A    between atoms: O3_3  and  C11_14 
ROOT
HETATM    1  C1  UNK   900      32.187 -49.611 -61.829  1.00  0.00    -0.028 C 
HETATM    2  C2  UNK   900      32.842 -50.054 -60.502  1.00  0.00    -0.008 C 
HETATM    3  C3  UNK   900      31.014 -48.960 -60.945  1.00  0.00     0.031 C 
HETATM    4  C4  UNK   900      31.716 -47.805 -60.336  1.00  0.00     0.033 C 
HETATM    5  C5  UNK   900      33.010 -48.567 -59.887  1.00  0.00     0.132 C 
HETATM    6  C6  UNK   900      30.541 -50.058 -59.970  1.00  0.00     0.124 C 
HETATM    7  C7  UNK   900      31.791 -50.856 -59.727  1.00  0.00     0.044 C 
HETATM    8  C8  UNK   900      31.568 -46.707 -61.494  1.00  0.00    -0.015 C 
HETATM    9  C9  UNK   900      31.294 -49.995 -62.982  1.00  0.00     0.013 C 
HETATM   10  C10 UNK   900      33.438 -49.067 -62.635  1.00  0.00     0.016 C 
HETATM   11  C11 UNK   900      31.398 -47.177 -63.073  1.00  0.00     0.126 C 
HETATM   12  C12 UNK   900      34.155 -50.834 -60.481  1.00  0.00     0.019 C 
HETATM   13  C13 UNK   900      30.772 -48.591 -63.579  1.00  0.00     0.033 C 
HETATM   14  C14 UNK   900      30.285 -45.889 -61.120  1.00  0.00     0.018 C 
HETATM   15  C15 UNK   900      32.736 -45.703 -61.385  1.00  0.00     0.018 C 
ENDROOT
BRANCH   5  16
HETATM   16  O1  UNK   900      33.069 -48.622 -58.463  1.00  0.00    -0.394 OA
HETATM   17  H24 UNK   900      33.125 -49.560 -58.213  1.00  0.00     0.210 HD
ENDBRANCH   5  16
BRANCH   6  18
HETATM   18  O2  UNK   900      30.013 -49.533 -58.766  1.00  0.00    -0.395 OA
HETATM   19  H25 UNK   900      30.004 -48.564 -58.848  1.00  0.00     0.210 HD
ENDBRANCH   6  18
BRANCH  11  20
HETATM   20  O3  UNK   900      30.640 -46.182 -63.793  1.00  0.00    -0.395 OA
HETATM   21  H26 UNK   900      30.617 -45.376 -63.251  1.00  0.00     0.210 HD
ENDBRANCH  11  20
TORSDOF 3
ENDMDL
MODEL 7
REMARK VINA RESULT:      -6.6     36.176     37.802
REMARK  3 active torsions:
REMARK  status: ('A' for Active; 'I' for Inactive)
REMARK    1  A    between atoms: O1_1  and  C5_8 
REMARK    2  A    between atoms: O2_2  and  C6_9 
REMARK    3  A    between atoms: O3_3  and  C11_14 
ROOT
HETATM    1  C1  UNK   900       7.051 -68.994 -49.234  1.00  0.00    -0.028 C 
HETATM    2  C2  UNK   900       8.202 -68.600 -48.282  1.00  0.00    -0.008 C 
HETATM    3  C3  UNK   900       6.496 -67.495 -49.061  1.00  0.00     0.031 C 
HETATM    4  C4  UNK   900       7.512 -66.720 -49.813  1.00  0.00     0.033 C 
HETATM    5  C5  UNK   900       8.783 -67.400 -49.199  1.00  0.00     0.132 C 
HETATM    6  C6  UNK   900       6.427 -67.229 -47.543  1.00  0.00     0.124 C 
HETATM    7  C7  UNK   900       7.559 -68.054 -47.002  1.00  0.00     0.044 C 
HETATM    8  C8  UNK   900       6.950 -66.845 -51.309  1.00  0.00    -0.015 C 
HETATM    9  C9  UNK   900       5.691 -69.630 -49.370  1.00  0.00     0.013 C 
HETATM   10  C10 UNK   900       7.829 -69.794 -50.359  1.00  0.00     0.016 C 
HETATM   11  C11 UNK   900       6.018 -68.143 -51.745  1.00  0.00     0.126 C 
HETATM   12  C12 UNK   900       9.289 -69.598 -47.888  1.00  0.00     0.019 C 
HETATM   13  C13 UNK   900       5.093 -69.025 -50.740  1.00  0.00     0.033 C 
HETATM   14  C14 UNK   900       6.077 -65.562 -51.526  1.00  0.00     0.018 C 
HETATM   15  C15 UNK   900       8.127 -66.709 -52.300  1.00  0.00     0.018 C 
ENDROOT
BRANCH   5  16
HETATM   16  O1  UNK   900       9.493 -66.460 -48.396  1.00  0.00    -0.394 OA
HETATM   17  H24 UNK   900       9.200 -65.572 -48.661  1.00  0.00     0.210 HD
ENDBRANCH   5  16
BRANCH   6  18
HETATM   18  O2  UNK   900       6.576 -65.859 -47.218  1.00  0.00    -0.395 OA
HETATM   19  H25 UNK   900       7.346 -65.524 -47.710  1.00  0.00     0.210 HD
ENDBRANCH   6  18
BRANCH  11  20
HETATM   20  O3  UNK   900       5.114 -67.754 -52.801  1.00  0.00    -0.395 OA
HETATM   21  H26 UNK   900       4.737 -66.890 -52.566  1.00  0.00     0.210 HD
ENDBRANCH  11  20
TORSDOF 3
ENDMDL
MODEL 8
REMARK VINA RESULT:      -6.4     16.954     18.650
REMARK  3 active torsions:
REMARK  status: ('A' for Active; 'I' for Inactive)
REMARK    1  A    between atoms: O1_1  and  C5_8 
REMARK    2  A    between atoms: O2_2  and  C6_9 
REMARK    3  A    between atoms: O3_3  and  C11_14 
ROOT
HETATM    1  C1  UNK   900      24.995 -22.776 -75.198  1.00  0.00    -0.028 C 
HETATM    2  C2  UNK   900      23.788 -23.207 -74.336  1.00  0.00    -0.008 C 
HETATM    3  C3  UNK   900      24.108 -23.143 -76.488  1.00  0.00     0.031 C 
HETATM    4  C4  UNK   900      23.104 -22.052 -76.470  1.00  0.00     0.033 C 
HETATM    5  C5  UNK   900      22.745 -22.130 -74.947  1.00  0.00     0.132 C 
HETATM    6  C6  UNK   900      23.566 -24.568 -76.253  1.00  0.00     0.124 C 
HETATM    7  C7  UNK   900      23.418 -24.633 -74.759  1.00  0.00     0.044 C 
HETATM    8  C8  UNK   900      23.896 -20.891 -77.240  1.00  0.00    -0.015 C 
HETATM    9  C9  UNK   900      26.310 -23.182 -75.815  1.00  0.00     0.013 C 
HETATM   10  C10 UNK   900      25.446 -21.443 -74.471  1.00  0.00     0.016 C 
HETATM   11  C11 UNK   900      25.553 -20.857 -77.223  1.00  0.00     0.126 C 
HETATM   12  C12 UNK   900      23.837 -23.154 -72.810  1.00  0.00     0.019 C 
HETATM   13  C13 UNK   900      26.525 -22.147 -77.033  1.00  0.00     0.033 C 
HETATM   14  C14 UNK   900      23.458 -21.021 -78.738  1.00  0.00     0.018 C 
HETATM   15  C15 UNK   900      23.355 -19.521 -76.776  1.00  0.00     0.018 C 
ENDROOT
BRANCH   5  16
HETATM   16  O1  UNK   900      21.406 -22.590 -74.789  1.00  0.00    -0.394 OA
HETATM   17  H24 UNK   900      20.995 -22.052 -74.091  1.00  0.00     0.210 HD
ENDBRANCH   5  16
BRANCH   6  18
HETATM   18  O2  UNK   900      22.334 -24.802 -76.911  1.00  0.00    -0.395 OA
HETATM   19  H25 UNK   900      21.806 -23.988 -76.841  1.00  0.00     0.210 HD
ENDBRANCH   6  18
BRANCH  11  20
HETATM   20  O3  UNK   900      26.035 -20.231 -78.431  1.00  0.00    -0.395 OA
HETATM   21  H26 UNK   900      26.996 -20.112 -78.340  1.00  0.00     0.210 HD
ENDBRANCH  11  20
TORSDOF 3
ENDMDL
MODEL 9
REMARK VINA RESULT:      -6.3     16.684     18.197
REMARK  3 active torsions:
REMARK  status: ('A' for Active; 'I' for Inactive)
REMARK    1  A    between atoms: O1_1  and  C5_8 
REMARK    2  A    between atoms: O2_2  and  C6_9 
REMARK    3  A    between atoms: O3_3  and  C11_14 
ROOT
HETATM    1  C1  UNK   900      24.977 -23.341 -76.318  1.00  0.00    -0.028 C 
HETATM    2  C2  UNK   900      23.484 -23.735 -76.327  1.00  0.00    -0.008 C 
HETATM    3  C3  UNK   900      24.502 -21.844 -75.972  1.00  0.00     0.031 C 
HETATM    4  C4  UNK   900      24.029 -22.005 -74.576  1.00  0.00     0.033 C 
HETATM    5  C5  UNK   900      23.182 -23.305 -74.796  1.00  0.00     0.132 C 
HETATM    6  C6  UNK   900      23.427 -21.476 -77.015  1.00  0.00     0.124 C 
HETATM    7  C7  UNK   900      22.777 -22.798 -77.313  1.00  0.00     0.044 C 
HETATM    8  C8  UNK   900      25.402 -21.848 -73.764  1.00  0.00    -0.015 C 
HETATM    9  C9  UNK   900      26.173 -22.920 -77.135  1.00  0.00     0.013 C 
HETATM   10  C10 UNK   900      25.620 -24.544 -75.512  1.00  0.00     0.016 C 
HETATM   11  C11 UNK   900      26.845 -22.228 -74.484  1.00  0.00     0.126 C 
HETATM   12  C12 UNK   900      23.039 -25.166 -76.619  1.00  0.00     0.019 C 
HETATM   13  C13 UNK   900      27.149 -22.185 -76.081  1.00  0.00     0.033 C 
HETATM   14  C14 UNK   900      25.473 -20.333 -73.371  1.00  0.00     0.018 C 
HETATM   15  C15 UNK   900      25.285 -22.609 -72.426  1.00  0.00     0.018 C 
ENDROOT
BRANCH   5  16
HETATM   16  O1  UNK   900      21.797 -23.014 -74.627  1.00  0.00    -0.394 OA
HETATM   17  H24 UNK   900      21.387 -23.032 -75.509  1.00  0.00     0.210 HD
ENDBRANCH   5  16
BRANCH   6  18
HETATM   18  O2  UNK   900      22.491 -20.532 -76.528  1.00  0.00    -0.395 OA
HETATM   19  H25 UNK   900      21.888 -21.000 -75.926  1.00  0.00     0.210 HD
ENDBRANCH   6  18
BRANCH  11  20
HETATM   20  O3  UNK   900      27.897 -21.424 -73.907  1.00  0.00    -0.395 OA
HETATM   21  H26 UNK   900      28.473 -22.015 -73.393  1.00  0.00     0.210 HD
ENDBRANCH  11  20
TORSDOF 3
ENDMDL
