MODEL 1
REMARK VINA RESULT:      -7.8      0.000      0.000
REMARK  4 active torsions:
REMARK  status: ('A' for Active; 'I' for Inactive)
REMARK    1  A    between atoms: O1_1  and  C9_12 
REMARK    2  A    between atoms: O2_2  and  C14_17 
REMARK    3  A    between atoms: C3_6  and  C7_10 
REMARK    4  A    between atoms: C7_10  and  C14_17 
ROOT
HETATM    1  C1  UNK   900      22.228 -37.641 -68.756  1.00  0.00     0.022 C 
HETATM    2  C2  UNK   900      21.647 -38.617 -67.687  1.00  0.00     0.024 C 
HETATM    3  C3  UNK   900      23.146 -36.574 -68.111  1.00  0.00     0.011 C 
HETATM    4  C4  UNK   900      21.025 -39.824 -68.410  1.00  0.00     0.046 C 
HETATM    5  C5  UNK   900      24.288 -37.239 -67.321  1.00  0.00     0.033 C 
HETATM    6  C6  UNK   900      22.647 -39.002 -66.599  1.00  0.00    -0.083 C 
HETATM    7  C8  UNK   900      22.956 -38.356 -69.880  1.00  0.00    -0.016 C 
HETATM    8  C9  UNK   900      22.042 -40.591 -69.262  1.00  0.00     0.147 C 
HETATM    9  C10 UNK   900      23.833 -38.382 -66.466  1.00  0.00    -0.023 C 
HETATM   10  C11 UNK   900      22.903 -39.681 -70.105  1.00  0.00    -0.059 C 
HETATM   11  C12 UNK   900      22.237 -40.068 -65.621  1.00  0.00     0.043 C 
HETATM   12  C15 UNK   900      23.719 -40.321 -71.192  1.00  0.00     0.046 C 
ENDROOT
BRANCH   3  13
HETATM   13  C7  UNK   900      22.350 -35.608 -67.222  1.00  0.00     0.084 C 
HETATM   14  C13 UNK   900      23.267 -34.925 -66.215  1.00  0.00     0.021 C 
BRANCH  13  15
HETATM   15  C14 UNK   900      21.644 -34.591 -68.090  1.00  0.00     0.143 C 
HETATM   16  O3  UNK   900      22.172 -33.645 -68.656  1.00  0.00    -0.650 OA
BRANCH  15  17
HETATM   17  O2  UNK   900      20.316 -34.865 -68.166  1.00  0.00    -0.776 OA
HETATM   18  H22 UNK   900      19.769 -34.092 -67.910  1.00  0.00     0.167 HD
ENDBRANCH  15  17
ENDBRANCH  13  15
ENDBRANCH   3  13
BRANCH   8  19
HETATM   19  O1  UNK   900      21.324 -41.509 -70.085  1.00  0.00    -0.391 OA
HETATM   20  H21 UNK   900      20.475 -41.694 -69.647  1.00  0.00     0.210 HD
ENDBRANCH   8  19
TORSDOF 4
ENDMDL
MODEL 2
REMARK VINA RESULT:      -7.7      2.084      2.719
REMARK  4 active torsions:
REMARK  status: ('A' for Active; 'I' for Inactive)
REMARK    1  A    between atoms: O1_1  and  C9_12 
REMARK    2  A    between atoms: O2_2  and  C14_17 
REMARK    3  A    between atoms: C3_6  and  C7_10 
REMARK    4  A    between atoms: C7_10  and  C14_17 
ROOT
HETATM    1  C1  UNK   900      23.414 -38.740 -67.688  1.00  0.00     0.022 C 
HETATM    2  C2  UNK   900      21.879 -38.490 -67.804  1.00  0.00     0.024 C 
HETATM    3  C3  UNK   900      23.935 -38.424 -66.264  1.00  0.00     0.011 C 
HETATM    4  C4  UNK   900      21.376 -39.123 -69.112  1.00  0.00     0.046 C 
HETATM    5  C5  UNK   900      23.181 -39.250 -65.208  1.00  0.00     0.033 C 
HETATM    6  C6  UNK   900      21.092 -38.924 -66.569  1.00  0.00    -0.083 C 
HETATM    7  C8  UNK   900      23.820 -40.144 -68.099  1.00  0.00    -0.016 C 
HETATM    8  C9  UNK   900      21.624 -40.634 -69.171  1.00  0.00     0.147 C 
HETATM    9  C10 UNK   900      21.698 -39.277 -65.422  1.00  0.00    -0.023 C 
HETATM   10  C11 UNK   900      23.021 -41.015 -68.742  1.00  0.00    -0.059 C 
HETATM   11  C12 UNK   900      19.591 -38.881 -66.649  1.00  0.00     0.043 C 
HETATM   12  C15 UNK   900      23.474 -42.415 -69.043  1.00  0.00     0.046 C 
ENDROOT
BRANCH   3  13
HETATM   13  C7  UNK   900      23.851 -36.922 -65.954  1.00  0.00     0.084 C 
HETATM   14  C13 UNK   900      23.965 -36.676 -64.455  1.00  0.00     0.021 C 
BRANCH  13  15
HETATM   15  C14 UNK   900      24.938 -36.191 -66.709  1.00  0.00     0.143 C 
HETATM   16  O3  UNK   900      26.140 -36.368 -66.580  1.00  0.00    -0.650 OA
BRANCH  15  17
HETATM   17  O2  UNK   900      24.400 -35.289 -67.569  1.00  0.00    -0.776 OA
HETATM   18  H22 UNK   900      25.029 -35.042 -68.280  1.00  0.00     0.167 HD
ENDBRANCH  15  17
ENDBRANCH  13  15
ENDBRANCH   3  13
BRANCH   8  19
HETATM   19  O1  UNK   900      21.371 -41.071 -70.507  1.00  0.00    -0.391 OA
HETATM   20  H21 UNK   900      20.559 -41.606 -70.491  1.00  0.00     0.210 HD
ENDBRANCH   8  19
TORSDOF 4
ENDMDL
MODEL 3
REMARK VINA RESULT:      -7.0      1.950      2.396
REMARK  4 active torsions:
REMARK  status: ('A' for Active; 'I' for Inactive)
REMARK    1  A    between atoms: O1_1  and  C9_12 
REMARK    2  A    between atoms: O2_2  and  C14_17 
REMARK    3  A    between atoms: C3_6  and  C7_10 
REMARK    4  A    between atoms: C7_10  and  C14_17 
ROOT
HETATM    1  C1  UNK   900      23.448 -36.603 -68.987  1.00  0.00     0.022 C 
HETATM    2  C2  UNK   900      22.212 -37.330 -68.373  1.00  0.00     0.024 C 
HETATM    3  C3  UNK   900      24.652 -36.610 -68.014  1.00  0.00     0.011 C 
HETATM    4  C4  UNK   900      21.181 -37.575 -69.487  1.00  0.00     0.046 C 
HETATM    5  C5  UNK   900      25.026 -38.048 -67.614  1.00  0.00     0.033 C 
HETATM    6  C6  UNK   900      22.570 -38.585 -67.580  1.00  0.00    -0.083 C 
HETATM    7  C8  UNK   900      23.856 -37.164 -70.337  1.00  0.00    -0.016 C 
HETATM    8  C9  UNK   900      21.735 -38.442 -70.623  1.00  0.00     0.147 C 
HETATM    9  C10 UNK   900      23.841 -38.896 -67.267  1.00  0.00    -0.023 C 
HETATM   10  C11 UNK   900      23.111 -38.010 -71.072  1.00  0.00    -0.059 C 
HETATM   11  C12 UNK   900      21.439 -39.448 -67.092  1.00  0.00     0.043 C 
HETATM   12  C15 UNK   900      23.623 -38.582 -72.362  1.00  0.00     0.046 C 
ENDROOT
BRANCH   3  13
HETATM   13  C7  UNK   900      24.380 -35.744 -66.775  1.00  0.00     0.084 C 
HETATM   14  C13 UNK   900      25.385 -36.054 -65.673  1.00  0.00     0.021 C 
BRANCH  13  15
HETATM   15  C14 UNK   900      24.429 -34.284 -67.160  1.00  0.00     0.143 C 
HETATM   16  O3  UNK   900      23.461 -33.564 -67.358  1.00  0.00    -0.650 OA
BRANCH  15  17
HETATM   17  O2  UNK   900      25.714 -33.858 -67.264  1.00  0.00    -0.776 OA
HETATM   18  H22 UNK   900      25.865 -33.349 -68.089  1.00  0.00     0.167 HD
ENDBRANCH  15  17
ENDBRANCH  13  15
ENDBRANCH   3  13
BRANCH   8  19
HETATM   19  O1  UNK   900      20.811 -38.387 -71.710  1.00  0.00    -0.391 OA
HETATM   20  H21 UNK   900      20.720 -39.289 -72.063  1.00  0.00     0.210 HD
ENDBRANCH   8  19
TORSDOF 4
ENDMDL
MODEL 4
REMARK VINA RESULT:      -6.4     11.517     13.665
REMARK  4 active torsions:
REMARK  status: ('A' for Active; 'I' for Inactive)
REMARK    1  A    between atoms: O1_1  and  C9_12 
REMARK    2  A    between atoms: O2_2  and  C14_17 
REMARK    3  A    between atoms: C3_6  and  C7_10 
REMARK    4  A    between atoms: C7_10  and  C14_17 
ROOT
HETATM    1  C1  UNK   900      29.919 -47.619 -63.669  1.00  0.00     0.022 C 
HETATM    2  C2  UNK   900      30.133 -46.407 -62.711  1.00  0.00     0.024 C 
HETATM    3  C3  UNK   900      30.548 -47.361 -65.060  1.00  0.00     0.011 C 
HETATM    4  C4  UNK   900      29.786 -46.846 -61.278  1.00  0.00     0.046 C 
HETATM    5  C5  UNK   900      32.048 -47.043 -64.934  1.00  0.00     0.033 C 
HETATM    6  C6  UNK   900      31.510 -45.760 -62.838  1.00  0.00    -0.083 C 
HETATM    7  C8  UNK   900      30.428 -48.928 -63.092  1.00  0.00    -0.016 C 
HETATM    8  C9  UNK   900      30.658 -48.007 -60.788  1.00  0.00     0.147 C 
HETATM    9  C10 UNK   900      32.359 -46.074 -63.833  1.00  0.00    -0.023 C 
HETATM   10  C11 UNK   900      30.788 -49.112 -61.809  1.00  0.00    -0.059 C 
HETATM   11  C12 UNK   900      31.875 -44.694 -61.842  1.00  0.00     0.043 C 
HETATM   12  C15 UNK   900      31.358 -50.418 -61.338  1.00  0.00     0.046 C 
ENDROOT
BRANCH   3  13
HETATM   13  C7  UNK   900      29.808 -46.248 -65.815  1.00  0.00     0.084 C 
HETATM   14  C13 UNK   900      30.720 -45.605 -66.852  1.00  0.00     0.021 C 
BRANCH  13  15
HETATM   15  C14 UNK   900      28.566 -46.817 -66.461  1.00  0.00     0.143 C 
HETATM   16  O3  UNK   900      28.543 -47.585 -67.412  1.00  0.00    -0.650 OA
BRANCH  15  17
HETATM   17  O2  UNK   900      27.449 -46.357 -65.841  1.00  0.00    -0.776 OA
HETATM   18  H22 UNK   900      27.650 -45.981 -64.958  1.00  0.00     0.167 HD
ENDBRANCH  15  17
ENDBRANCH  13  15
ENDBRANCH   3  13
BRANCH   8  19
HETATM   19  O1  UNK   900      30.089 -48.505 -59.577  1.00  0.00    -0.391 OA
HETATM   20  H21 UNK   900      30.773 -48.451 -58.888  1.00  0.00     0.210 HD
ENDBRANCH   8  19
TORSDOF 4
ENDMDL
MODEL 5
REMARK VINA RESULT:      -6.0     15.071     17.053
REMARK  4 active torsions:
REMARK  status: ('A' for Active; 'I' for Inactive)
REMARK    1  A    between atoms: O1_1  and  C9_12 
REMARK    2  A    between atoms: O2_2  and  C14_17 
REMARK    3  A    between atoms: C3_6  and  C7_10 
REMARK    4  A    between atoms: C7_10  and  C14_17 
ROOT
HETATM    1  C1  UNK   900      34.512 -35.034 -58.108  1.00  0.00     0.022 C 
HETATM    2  C2  UNK   900      35.543 -35.646 -59.105  1.00  0.00     0.024 C 
HETATM    3  C3  UNK   900      34.469 -35.825 -56.778  1.00  0.00     0.011 C 
HETATM    4  C4  UNK   900      35.775 -34.645 -60.250  1.00  0.00     0.046 C 
HETATM    5  C5  UNK   900      35.863 -35.885 -56.130  1.00  0.00     0.033 C 
HETATM    6  C6  UNK   900      36.831 -36.125 -58.439  1.00  0.00    -0.083 C 
HETATM    7  C8  UNK   900      34.750 -33.559 -57.839  1.00  0.00    -0.016 C 
HETATM    8  C9  UNK   900      36.320 -33.300 -59.758  1.00  0.00     0.147 C 
HETATM    9  C10 UNK   900      36.957 -36.206 -57.102  1.00  0.00    -0.023 C 
HETATM   10  C11 UNK   900      35.576 -32.774 -58.553  1.00  0.00    -0.059 C 
HETATM   11  C12 UNK   900      37.954 -36.574 -59.333  1.00  0.00     0.043 C 
HETATM   12  C15 UNK   900      35.817 -31.342 -58.170  1.00  0.00     0.046 C 
ENDROOT
BRANCH   3  13
HETATM   13  C7  UNK   900      33.892 -37.234 -56.979  1.00  0.00     0.084 C 
HETATM   14  C13 UNK   900      34.372 -38.172 -55.879  1.00  0.00     0.021 C 
BRANCH  13  15
HETATM   15  C14 UNK   900      32.383 -37.161 -57.012  1.00  0.00     0.143 C 
HETATM   16  O3  UNK   900      31.697 -36.998 -58.010  1.00  0.00    -0.650 OA
BRANCH  15  17
HETATM   17  O2  UNK   900      31.869 -37.301 -55.763  1.00  0.00    -0.776 OA
HETATM   18  H22 UNK   900      32.442 -36.886 -55.083  1.00  0.00     0.167 HD
ENDBRANCH  15  17
ENDBRANCH  13  15
ENDBRANCH   3  13
BRANCH   8  19
HETATM   19  O1  UNK   900      36.246 -32.372 -60.840  1.00  0.00    -0.391 OA
HETATM   20  H21 UNK   900      35.398 -31.900 -60.763  1.00  0.00     0.210 HD
ENDBRANCH   8  19
TORSDOF 4
ENDMDL
MODEL 6
REMARK VINA RESULT:      -6.0     15.527     17.270
REMARK  4 active torsions:
REMARK  status: ('A' for Active; 'I' for Inactive)
REMARK    1  A    between atoms: O1_1  and  C9_12 
REMARK    2  A    between atoms: O2_2  and  C14_17 
REMARK    3  A    between atoms: C3_6  and  C7_10 
REMARK    4  A    between atoms: C7_10  and  C14_17 
ROOT
HETATM    1  C1  UNK   900      24.337 -22.612 -73.761  1.00  0.00     0.022 C 
HETATM    2  C2  UNK   900      25.602 -22.040 -74.473  1.00  0.00     0.024 C 
HETATM    3  C3  UNK   900      23.365 -21.484 -73.338  1.00  0.00     0.011 C 
HETATM    4  C4  UNK   900      26.353 -23.200 -75.148  1.00  0.00     0.046 C 
HETATM    5  C5  UNK   900      22.951 -20.633 -74.551  1.00  0.00     0.033 C 
HETATM    6  C6  UNK   900      25.302 -20.874 -75.413  1.00  0.00    -0.083 C 
HETATM    7  C8  UNK   900      23.610 -23.655 -74.590  1.00  0.00    -0.016 C 
HETATM    8  C9  UNK   900      25.499 -23.929 -76.192  1.00  0.00     0.147 C 
HETATM    9  C10 UNK   900      24.100 -20.270 -75.443  1.00  0.00    -0.023 C 
HETATM   10  C11 UNK   900      24.106 -24.237 -75.697  1.00  0.00    -0.059 C 
HETATM   11  C12 UNK   900      26.425 -20.365 -76.273  1.00  0.00     0.043 C 
HETATM   12  C15 UNK   900      23.288 -25.201 -76.505  1.00  0.00     0.046 C 
ENDROOT
BRANCH   3  13
HETATM   13  C7  UNK   900      23.965 -20.609 -72.228  1.00  0.00     0.084 C 
HETATM   14  C13 UNK   900      23.254 -19.264 -72.161  1.00  0.00     0.021 C 
BRANCH  13  15
HETATM   15  C14 UNK   900      23.874 -21.338 -70.907  1.00  0.00     0.143 C 
HETATM   16  O3  UNK   900      24.820 -21.740 -70.246  1.00  0.00    -0.650 OA
BRANCH  15  17
HETATM   17  O2  UNK   900      22.578 -21.497 -70.536  1.00  0.00    -0.776 OA
HETATM   18  H22 UNK   900      21.960 -21.103 -71.188  1.00  0.00     0.167 HD
ENDBRANCH  15  17
ENDBRANCH  13  15
ENDBRANCH   3  13
BRANCH   8  19
HETATM   19  O1  UNK   900      26.180 -25.130 -76.558  1.00  0.00    -0.391 OA
HETATM   20  H21 UNK   900      25.543 -25.696 -77.027  1.00  0.00     0.210 HD
ENDBRANCH   8  19
TORSDOF 4
ENDMDL
MODEL 7
REMARK VINA RESULT:      -5.9     18.357     20.295
REMARK  4 active torsions:
REMARK  status: ('A' for Active; 'I' for Inactive)
REMARK    1  A    between atoms: O1_1  and  C9_12 
REMARK    2  A    between atoms: O2_2  and  C14_17 
REMARK    3  A    between atoms: C3_6  and  C7_10 
REMARK    4  A    between atoms: C7_10  and  C14_17 
ROOT
HETATM    1  C1  UNK   900      22.864 -32.955 -48.705  1.00  0.00     0.022 C 
HETATM    2  C2  UNK   900      24.011 -31.954 -48.364  1.00  0.00     0.024 C 
HETATM    3  C3  UNK   900      21.643 -32.231 -49.323  1.00  0.00     0.011 C 
HETATM    4  C4  UNK   900      25.291 -32.754 -48.070  1.00  0.00     0.046 C 
HETATM    5  C5  UNK   900      22.050 -31.442 -50.579  1.00  0.00     0.033 C 
HETATM    6  C6  UNK   900      24.199 -30.857 -49.409  1.00  0.00    -0.083 C 
HETATM    7  C8  UNK   900      23.317 -34.091 -49.606  1.00  0.00    -0.016 C 
HETATM    8  C9  UNK   900      25.738 -33.612 -49.259  1.00  0.00     0.147 C 
HETATM    9  C10 UNK   900      23.315 -30.658 -50.404  1.00  0.00    -0.023 C 
HETATM   10  C11 UNK   900      24.600 -34.383 -49.885  1.00  0.00    -0.059 C 
HETATM   11  C12 UNK   900      25.384 -29.945 -49.258  1.00  0.00     0.043 C 
HETATM   12  C15 UNK   900      24.960 -35.474 -50.851  1.00  0.00     0.046 C 
ENDROOT
BRANCH   3  13
HETATM   13  C7  UNK   900      20.951 -31.321 -48.298  1.00  0.00     0.084 C 
HETATM   14  C13 UNK   900      20.471 -30.035 -48.960  1.00  0.00     0.021 C 
BRANCH  13  15
HETATM   15  C14 UNK   900      19.801 -32.065 -47.659  1.00  0.00     0.143 C 
HETATM   16  O3  UNK   900      19.298 -31.808 -46.574  1.00  0.00    -0.650 OA
BRANCH  15  17
HETATM   17  O2  UNK   900      19.383 -33.080 -48.457  1.00  0.00    -0.776 OA
HETATM   18  H22 UNK   900      19.068 -32.755 -49.328  1.00  0.00     0.167 HD
ENDBRANCH  15  17
ENDBRANCH  13  15
ENDBRANCH   3  13
BRANCH   8  19
HETATM   19  O1  UNK   900      26.757 -34.501 -48.803  1.00  0.00    -0.391 OA
HETATM   20  H21 UNK   900      27.086 -34.158 -47.954  1.00  0.00     0.210 HD
ENDBRANCH   8  19
TORSDOF 4
ENDMDL
MODEL 8
REMARK VINA RESULT:      -5.6     15.765     18.487
REMARK  4 active torsions:
REMARK  status: ('A' for Active; 'I' for Inactive)
REMARK    1  A    between atoms: O1_1  and  C9_12 
REMARK    2  A    between atoms: O2_2  and  C14_17 
REMARK    3  A    between atoms: C3_6  and  C7_10 
REMARK    4  A    between atoms: C7_10  and  C14_17 
ROOT
HETATM    1  C1  UNK   900      25.252 -21.670 -75.156  1.00  0.00     0.022 C 
HETATM    2  C2  UNK   900      25.761 -21.198 -76.553  1.00  0.00     0.024 C 
HETATM    3  C3  UNK   900      24.731 -23.127 -75.204  1.00  0.00     0.011 C 
HETATM    4  C4  UNK   900      26.553 -19.892 -76.372  1.00  0.00     0.046 C 
HETATM    5  C5  UNK   900      25.819 -24.082 -75.723  1.00  0.00     0.033 C 
HETATM    6  C6  UNK   900      26.520 -22.275 -77.325  1.00  0.00    -0.083 C 
HETATM    7  C8  UNK   900      26.293 -21.516 -74.062  1.00  0.00    -0.016 C 
HETATM    8  C9  UNK   900      27.765 -20.059 -75.448  1.00  0.00     0.147 C 
HETATM    9  C10 UNK   900      26.547 -23.558 -76.924  1.00  0.00    -0.023 C 
HETATM   10  C11 UNK   900      27.437 -20.819 -74.185  1.00  0.00    -0.059 C 
HETATM   11  C12 UNK   900      27.196 -21.869 -78.606  1.00  0.00     0.043 C 
HETATM   12  C15 UNK   900      28.453 -20.784 -73.080  1.00  0.00     0.046 C 
ENDROOT
BRANCH   3  13
HETATM   13  C7  UNK   900      23.450 -23.240 -76.044  1.00  0.00     0.084 C 
HETATM   14  C13 UNK   900      23.096 -24.701 -76.289  1.00  0.00     0.021 C 
BRANCH  13  15
HETATM   15  C14 UNK   900      22.323 -22.517 -75.343  1.00  0.00     0.143 C 
HETATM   16  O3  UNK   900      22.097 -21.317 -75.402  1.00  0.00    -0.650 OA
BRANCH  15  17
HETATM   17  O2  UNK   900      21.572 -23.387 -74.620  1.00  0.00    -0.776 OA
HETATM   18  H22 UNK   900      20.696 -23.544 -75.033  1.00  0.00     0.167 HD
ENDBRANCH  15  17
ENDBRANCH  13  15
ENDBRANCH   3  13
BRANCH   8  19
HETATM   19  O1  UNK   900      28.265 -18.758 -75.138  1.00  0.00    -0.391 OA
HETATM   20  H21 UNK   900      28.473 -18.316 -75.979  1.00  0.00     0.210 HD
ENDBRANCH   8  19
TORSDOF 4
ENDMDL
MODEL 9
REMARK VINA RESULT:      -5.5     30.393     31.878
REMARK  4 active torsions:
REMARK  status: ('A' for Active; 'I' for Inactive)
REMARK    1  A    between atoms: O1_1  and  C9_12 
REMARK    2  A    between atoms: O2_2  and  C14_17 
REMARK    3  A    between atoms: C3_6  and  C7_10 
REMARK    4  A    between atoms: C7_10  and  C14_17 
ROOT
HETATM    1  C1  UNK   900       3.243 -61.551 -61.670  1.00  0.00     0.022 C 
HETATM    2  C2  UNK   900       3.116 -62.327 -63.016  1.00  0.00     0.024 C 
HETATM    3  C3  UNK   900       1.858 -61.307 -61.022  1.00  0.00     0.011 C 
HETATM    4  C4  UNK   900       4.512 -62.818 -63.435  1.00  0.00     0.046 C 
HETATM    5  C5  UNK   900       1.114 -62.636 -60.801  1.00  0.00     0.033 C 
HETATM    6  C6  UNK   900       2.059 -63.430 -62.992  1.00  0.00    -0.083 C 
HETATM    7  C8  UNK   900       4.177 -62.225 -60.682  1.00  0.00    -0.016 C 
HETATM    8  C9  UNK   900       5.145 -63.752 -62.397  1.00  0.00     0.147 C 
HETATM    9  C10 UNK   900       1.184 -63.559 -61.979  1.00  0.00    -0.023 C 
HETATM   10  C11 UNK   900       5.018 -63.230 -60.986  1.00  0.00    -0.059 C 
HETATM   11  C12 UNK   900       1.978 -64.344 -64.183  1.00  0.00     0.043 C 
HETATM   12  C15 UNK   900       5.852 -63.897 -59.930  1.00  0.00     0.046 C 
ENDROOT
BRANCH   3  13
HETATM   13  C7  UNK   900       1.011 -60.331 -61.852  1.00  0.00     0.084 C 
HETATM   14  C13 UNK   900      -0.463 -60.460 -61.493  1.00  0.00     0.021 C 
BRANCH  13  15
HETATM   15  C14 UNK   900       1.504 -58.920 -61.627  1.00  0.00     0.143 C 
HETATM   16  O3  UNK   900       1.748 -58.101 -62.501  1.00  0.00    -0.650 OA
BRANCH  15  17
HETATM   17  O2  UNK   900       1.647 -58.668 -60.301  1.00  0.00    -0.776 OA
HETATM   18  H22 UNK   900       2.544 -58.900 -59.979  1.00  0.00     0.167 HD
ENDBRANCH  15  17
ENDBRANCH  13  15
ENDBRANCH   3  13
BRANCH   8  19
HETATM   19  O1  UNK   900       6.518 -63.932 -62.746  1.00  0.00    -0.391 OA
HETATM   20  H21 UNK   900       6.602 -64.807 -63.163  1.00  0.00     0.210 HD
ENDBRANCH   8  19
TORSDOF 4
ENDMDL
