MODEL 1
REMARK VINA RESULT:      -6.5      0.000      0.000
REMARK  9 active torsions:
REMARK  status: ('A' for Active; 'I' for Inactive)
REMARK    1  A    between atoms: O2_2  and  C5_14 
REMARK    2  A    between atoms: O2_2  and  C7_16 
REMARK    3  A    between atoms: O3_3  and  C1_10 
REMARK    4  A    between atoms: O4_4  and  C2_11 
REMARK    5  A    between atoms: O5_5  and  C3_12 
REMARK    6  A    between atoms: O7_7  and  C6_15 
REMARK    7  A    between atoms: O8_8  and  C16_25 
REMARK    8  A    between atoms: O9_9  and  C21_30 
REMARK    9  A    between atoms: C4_13  and  C6_15 
ROOT
HETATM    1  O6  UNK   900      39.582 -34.932 -61.644  1.00  0.00    -0.381 OA
HETATM    2  C7  UNK   900      36.598 -35.325 -59.430  1.00  0.00     0.095 A 
HETATM    3  C8  UNK   900      37.749 -35.624 -60.171  1.00  0.00     0.006 A 
HETATM    4  C9  UNK   900      38.403 -36.847 -59.970  1.00  0.00    -0.044 A 
HETATM    5  C10 UNK   900      39.656 -37.164 -60.746  1.00  0.00     0.070 C 
HETATM    6  C11 UNK   900      39.753 -36.305 -62.010  1.00  0.00     0.122 C 
HETATM    7  C12 UNK   900      36.103 -36.222 -58.469  1.00  0.00     0.042 A 
HETATM    8  C13 UNK   900      38.243 -34.661 -61.218  1.00  0.00     0.210 C 
HETATM    9  C14 UNK   900      36.777 -37.446 -58.253  1.00  0.00    -0.017 A 
HETATM   10  C15 UNK   900      37.923 -37.743 -59.006  1.00  0.00     0.020 A 
HETATM   11  C16 UNK   900      34.955 -35.928 -57.716  1.00  0.00     0.084 A 
HETATM   12  C17 UNK   900      41.116 -36.452 -62.670  1.00  0.00     0.040 C 
HETATM   13  C19 UNK   900      36.284 -38.340 -57.288  1.00  0.00     0.049 A 
HETATM   14  C20 UNK   900      34.478 -36.827 -56.762  1.00  0.00     0.074 A 
HETATM   15  C21 UNK   900      35.143 -38.031 -56.547  1.00  0.00     0.071 A 
ENDROOT
BRANCH   2  16
HETATM   16  O2  UNK   900      35.973 -34.134 -59.682  1.00  0.00    -0.316 OA
BRANCH  16  17
HETATM   17  C5  UNK   900      36.787 -32.966 -59.667  1.00  0.00     0.298 C 
HETATM   18  O1  UNK   900      36.182 -31.919 -60.432  1.00  0.00    -0.348 OA
HETATM   19  C4  UNK   900      36.996 -30.745 -60.501  1.00  0.00     0.179 C 
HETATM   20  C1  UNK   900      37.245 -30.170 -59.100  1.00  0.00     0.183 C 
HETATM   21  C2  UNK   900      37.821 -31.246 -58.175  1.00  0.00     0.183 C 
HETATM   22  C3  UNK   900      36.968 -32.514 -58.218  1.00  0.00     0.205 C 
BRANCH  19  23
HETATM   23  C6  UNK   900      36.281 -29.741 -61.400  1.00  0.00     0.198 C 
BRANCH  23  24
HETATM   24  O7  UNK   900      35.024 -29.437 -60.824  1.00  0.00    -0.398 OA
HETATM   25  H23 UNK   900      34.498 -30.254 -60.833  1.00  0.00     0.209 HD
ENDBRANCH  23  24
ENDBRANCH  19  23
BRANCH  20  26
HETATM   26  O3  UNK   900      38.167 -29.087 -59.196  1.00  0.00    -0.385 OA
HETATM   27  C18 UNK   900      39.437 -29.528 -59.649  1.00  0.00     0.202 C 
ENDBRANCH  20  26
BRANCH  21  28
HETATM   28  O4  UNK   900      37.874 -30.739 -56.843  1.00  0.00    -0.390 OA
HETATM   29  H13 UNK   900      37.058 -30.233 -56.690  1.00  0.00     0.210 HD
ENDBRANCH  21  28
BRANCH  22  30
HETATM   30  O5  UNK   900      35.675 -32.242 -57.669  1.00  0.00    -0.388 OA
HETATM   31  H14 UNK   900      35.438 -32.968 -57.067  1.00  0.00     0.210 HD
ENDBRANCH  22  30
ENDBRANCH  16  17
ENDBRANCH   2  16
BRANCH  11  32
HETATM   32  O8  UNK   900      34.247 -34.768 -57.865  1.00  0.00    -0.355 OA
HETATM   33  C22 UNK   900      32.908 -34.887 -58.335  1.00  0.00     0.210 C 
ENDBRANCH  11  32
BRANCH  15  34
HETATM   34  O9  UNK   900      34.677 -38.909 -55.616  1.00  0.00    -0.356 OA
HETATM   35  C23 UNK   900      33.290 -38.837 -55.293  1.00  0.00     0.210 C 
ENDBRANCH  15  34
TORSDOF 9
ENDMDL
MODEL 2
REMARK VINA RESULT:      -6.3      2.432      4.318
REMARK  9 active torsions:
REMARK  status: ('A' for Active; 'I' for Inactive)
REMARK    1  A    between atoms: O2_2  and  C5_14 
REMARK    2  A    between atoms: O2_2  and  C7_16 
REMARK    3  A    between atoms: O3_3  and  C1_10 
REMARK    4  A    between atoms: O4_4  and  C2_11 
REMARK    5  A    between atoms: O5_5  and  C3_12 
REMARK    6  A    between atoms: O7_7  and  C6_15 
REMARK    7  A    between atoms: O8_8  and  C16_25 
REMARK    8  A    between atoms: O9_9  and  C21_30 
REMARK    9  A    between atoms: C4_13  and  C6_15 
ROOT
HETATM    1  O6  UNK   900      39.417 -36.874 -61.023  1.00  0.00    -0.381 OA
HETATM    2  C7  UNK   900      37.376 -38.423 -58.305  1.00  0.00     0.095 A 
HETATM    3  C8  UNK   900      38.459 -38.108 -59.135  1.00  0.00     0.006 A 
HETATM    4  C9  UNK   900      39.755 -38.481 -58.752  1.00  0.00    -0.044 A 
HETATM    5  C10 UNK   900      40.928 -38.122 -59.627  1.00  0.00     0.070 C 
HETATM    6  C11 UNK   900      40.478 -37.834 -61.062  1.00  0.00     0.122 C 
HETATM    7  C12 UNK   900      37.569 -39.086 -57.082  1.00  0.00     0.042 A 
HETATM    8  C13 UNK   900      38.224 -37.424 -60.456  1.00  0.00     0.210 C 
HETATM    9  C14 UNK   900      38.879 -39.443 -56.688  1.00  0.00    -0.017 A 
HETATM   10  C15 UNK   900      39.959 -39.132 -57.529  1.00  0.00     0.020 A 
HETATM   11  C16 UNK   900      36.489 -39.401 -56.241  1.00  0.00     0.084 A 
HETATM   12  C17 UNK   900      41.614 -37.250 -61.887  1.00  0.00     0.040 C 
HETATM   13  C19 UNK   900      39.072 -40.101 -55.462  1.00  0.00     0.049 A 
HETATM   14  C20 UNK   900      36.698 -40.055 -55.027  1.00  0.00     0.074 A 
HETATM   15  C21 UNK   900      37.988 -40.404 -54.638  1.00  0.00     0.071 A 
ENDROOT
BRANCH   2  16
HETATM   16  O2  UNK   900      36.125 -38.069 -58.734  1.00  0.00    -0.316 OA
BRANCH  16  17
HETATM   17  C5  UNK   900      35.745 -36.709 -58.553  1.00  0.00     0.298 C 
HETATM   18  O1  UNK   900      36.070 -35.935 -59.711  1.00  0.00    -0.348 OA
HETATM   19  C4  UNK   900      35.767 -34.547 -59.549  1.00  0.00     0.179 C 
HETATM   20  C1  UNK   900      34.267 -34.340 -59.297  1.00  0.00     0.183 C 
HETATM   21  C2  UNK   900      33.800 -35.197 -58.117  1.00  0.00     0.183 C 
HETATM   22  C3  UNK   900      34.239 -36.651 -58.294  1.00  0.00     0.205 C 
BRANCH  19  23
HETATM   23  C6  UNK   900      36.227 -33.825 -60.812  1.00  0.00     0.198 C 
BRANCH  23  24
HETATM   24  O7  UNK   900      36.241 -32.432 -60.556  1.00  0.00    -0.398 OA
HETATM   25  H23 UNK   900      35.894 -31.991 -61.349  1.00  0.00     0.209 HD
ENDBRANCH  23  24
ENDBRANCH  19  23
BRANCH  20  26
HETATM   26  O3  UNK   900      34.026 -32.966 -59.007  1.00  0.00    -0.385 OA
HETATM   27  C18 UNK   900      34.525 -32.613 -57.726  1.00  0.00     0.202 C 
ENDBRANCH  20  26
BRANCH  21  28
HETATM   28  O4  UNK   900      32.380 -35.125 -58.019  1.00  0.00    -0.390 OA
HETATM   29  H13 UNK   900      32.097 -34.309 -58.465  1.00  0.00     0.210 HD
ENDBRANCH  21  28
BRANCH  22  30
HETATM   30  O5  UNK   900      33.569 -37.222 -59.421  1.00  0.00    -0.388 OA
HETATM   31  H14 UNK   900      33.418 -36.520 -60.077  1.00  0.00     0.210 HD
ENDBRANCH  22  30
ENDBRANCH  16  17
ENDBRANCH   2  16
BRANCH  11  32
HETATM   32  O8  UNK   900      35.194 -39.091 -56.549  1.00  0.00    -0.355 OA
HETATM   33  C22 UNK   900      34.205 -39.420 -55.579  1.00  0.00     0.210 C 
ENDBRANCH  11  32
BRANCH  15  34
HETATM   34  O9  UNK   900      38.191 -41.043 -53.453  1.00  0.00    -0.356 OA
HETATM   35  C23 UNK   900      39.517 -41.494 -53.179  1.00  0.00     0.210 C 
ENDBRANCH  15  34
TORSDOF 9
ENDMDL
MODEL 3
REMARK VINA RESULT:      -6.2     14.180     17.435
REMARK  9 active torsions:
REMARK  status: ('A' for Active; 'I' for Inactive)
REMARK    1  A    between atoms: O2_2  and  C5_14 
REMARK    2  A    between atoms: O2_2  and  C7_16 
REMARK    3  A    between atoms: O3_3  and  C1_10 
REMARK    4  A    between atoms: O4_4  and  C2_11 
REMARK    5  A    between atoms: O5_5  and  C3_12 
REMARK    6  A    between atoms: O7_7  and  C6_15 
REMARK    7  A    between atoms: O8_8  and  C16_25 
REMARK    8  A    between atoms: O9_9  and  C21_30 
REMARK    9  A    between atoms: C4_13  and  C6_15 
ROOT
HETATM    1  O6  UNK   900      21.683 -26.480 -51.577  1.00  0.00    -0.381 OA
HETATM    2  C7  UNK   900      22.784 -29.788 -50.233  1.00  0.00     0.095 A 
HETATM    3  C8  UNK   900      22.093 -28.578 -50.377  1.00  0.00     0.006 A 
HETATM    4  C9  UNK   900      20.917 -28.361 -49.644  1.00  0.00    -0.044 A 
HETATM    5  C10 UNK   900      20.155 -27.072 -49.815  1.00  0.00     0.070 C 
HETATM    6  C11 UNK   900      21.050 -25.975 -50.397  1.00  0.00     0.122 C 
HETATM    7  C12 UNK   900      22.304 -30.799 -49.383  1.00  0.00     0.042 A 
HETATM    8  C13 UNK   900      22.642 -27.497 -51.270  1.00  0.00     0.210 C 
HETATM    9  C14 UNK   900      21.107 -30.586 -48.661  1.00  0.00    -0.017 A 
HETATM   10  C15 UNK   900      20.426 -29.367 -48.804  1.00  0.00     0.020 A 
HETATM   11  C16 UNK   900      22.987 -32.018 -49.237  1.00  0.00     0.084 A 
HETATM   12  C17 UNK   900      20.236 -24.750 -50.786  1.00  0.00     0.040 C 
HETATM   13  C19 UNK   900      20.626 -31.599 -47.816  1.00  0.00     0.049 A 
HETATM   14  C20 UNK   900      22.496 -33.013 -48.393  1.00  0.00     0.074 A 
HETATM   15  C21 UNK   900      21.316 -32.805 -47.684  1.00  0.00     0.071 A 
ENDROOT
BRANCH   2  16
HETATM   16  O2  UNK   900      23.944 -29.944 -50.942  1.00  0.00    -0.316 OA
BRANCH  16  17
HETATM   17  C5  UNK   900      25.009 -29.050 -50.636  1.00  0.00     0.298 C 
HETATM   18  O1  UNK   900      25.838 -29.588 -49.602  1.00  0.00    -0.348 OA
HETATM   19  C4  UNK   900      26.885 -28.693 -49.215  1.00  0.00     0.179 C 
HETATM   20  C1  UNK   900      27.812 -28.390 -50.400  1.00  0.00     0.183 C 
HETATM   21  C2  UNK   900      27.002 -27.882 -51.595  1.00  0.00     0.183 C 
HETATM   22  C3  UNK   900      25.836 -28.822 -51.902  1.00  0.00     0.205 C 
BRANCH  19  23
HETATM   23  C6  UNK   900      27.644 -29.345 -48.062  1.00  0.00     0.198 C 
BRANCH  23  24
HETATM   24  O7  UNK   900      28.932 -29.712 -48.521  1.00  0.00    -0.398 OA
HETATM   25  H23 UNK   900      29.465 -29.926 -47.738  1.00  0.00     0.209 HD
ENDBRANCH  23  24
ENDBRANCH  19  23
BRANCH  20  26
HETATM   26  O3  UNK   900      28.757 -27.395 -50.012  1.00  0.00    -0.385 OA
HETATM   27  C18 UNK   900      28.118 -26.162 -49.719  1.00  0.00     0.202 C 
ENDBRANCH  20  26
BRANCH  21  28
HETATM   28  O4  UNK   900      27.858 -27.779 -52.731  1.00  0.00    -0.390 OA
HETATM   29  H13 UNK   900      27.410 -28.214 -53.475  1.00  0.00     0.210 HD
ENDBRANCH  21  28
BRANCH  22  30
HETATM   30  O5  UNK   900      26.342 -30.087 -52.339  1.00  0.00    -0.388 OA
HETATM   31  H14 UNK   900      25.721 -30.458 -52.990  1.00  0.00     0.210 HD
ENDBRANCH  22  30
ENDBRANCH  16  17
ENDBRANCH   2  16
BRANCH  11  32
HETATM   32  O8  UNK   900      24.149 -32.300 -49.899  1.00  0.00    -0.355 OA
HETATM   33  C22 UNK   900      25.066 -33.172 -49.245  1.00  0.00     0.210 C 
ENDBRANCH  11  32
BRANCH  15  34
HETATM   34  O9  UNK   900      20.837 -33.777 -46.860  1.00  0.00    -0.356 OA
HETATM   35  C23 UNK   900      19.482 -34.180 -47.053  1.00  0.00     0.210 C 
ENDBRANCH  15  34
TORSDOF 9
ENDMDL
MODEL 4
REMARK VINA RESULT:      -6.1     21.269     24.931
REMARK  9 active torsions:
REMARK  status: ('A' for Active; 'I' for Inactive)
REMARK    1  A    between atoms: O2_2  and  C5_14 
REMARK    2  A    between atoms: O2_2  and  C7_16 
REMARK    3  A    between atoms: O3_3  and  C1_10 
REMARK    4  A    between atoms: O4_4  and  C2_11 
REMARK    5  A    between atoms: O5_5  and  C3_12 
REMARK    6  A    between atoms: O7_7  and  C6_15 
REMARK    7  A    between atoms: O8_8  and  C16_25 
REMARK    8  A    between atoms: O9_9  and  C21_30 
REMARK    9  A    between atoms: C4_13  and  C6_15 
ROOT
HETATM    1  O6  UNK   900      24.945 -23.892 -75.317  1.00  0.00    -0.381 OA
HETATM    2  C7  UNK   900      23.089 -20.730 -74.600  1.00  0.00     0.095 A 
HETATM    3  C8  UNK   900      23.934 -21.661 -75.217  1.00  0.00     0.006 A 
HETATM    4  C9  UNK   900      24.407 -21.415 -76.513  1.00  0.00    -0.044 A 
HETATM    5  C10 UNK   900      25.295 -22.424 -77.192  1.00  0.00     0.070 C 
HETATM    6  C11 UNK   900      25.960 -23.350 -76.169  1.00  0.00     0.122 C 
HETATM    7  C12 UNK   900      22.686 -19.563 -75.270  1.00  0.00     0.042 A 
HETATM    8  C13 UNK   900      24.376 -22.890 -74.467  1.00  0.00     0.210 C 
HETATM    9  C14 UNK   900      23.148 -19.326 -76.586  1.00  0.00    -0.017 A 
HETATM   10  C15 UNK   900      24.002 -20.259 -77.193  1.00  0.00     0.020 A 
HETATM   11  C16 UNK   900      21.833 -18.627 -74.662  1.00  0.00     0.084 A 
HETATM   12  C17 UNK   900      26.668 -24.509 -76.855  1.00  0.00     0.040 C 
HETATM   13  C19 UNK   900      22.741 -18.161 -77.256  1.00  0.00     0.049 A 
HETATM   14  C20 UNK   900      21.440 -17.475 -75.342  1.00  0.00     0.074 A 
HETATM   15  C21 UNK   900      21.891 -17.243 -76.638  1.00  0.00     0.071 A 
ENDROOT
BRANCH   2  16
HETATM   16  O2  UNK   900      22.677 -20.996 -73.322  1.00  0.00    -0.316 OA
BRANCH  16  17
HETATM   17  C5  UNK   900      23.675 -20.966 -72.307  1.00  0.00     0.298 C 
HETATM   18  O1  UNK   900      24.428 -19.752 -72.374  1.00  0.00    -0.348 OA
HETATM   19  C4  UNK   900      25.487 -19.706 -71.413  1.00  0.00     0.179 C 
HETATM   20  C1  UNK   900      24.934 -19.795 -69.985  1.00  0.00     0.183 C 
HETATM   21  C2  UNK   900      24.041 -21.029 -69.833  1.00  0.00     0.183 C 
HETATM   22  C3  UNK   900      22.992 -21.081 -70.944  1.00  0.00     0.205 C 
BRANCH  19  23
HETATM   23  C6  UNK   900      26.255 -18.407 -71.637  1.00  0.00     0.198 C 
BRANCH  23  24
HETATM   24  O7  UNK   900      27.601 -18.605 -71.245  1.00  0.00    -0.398 OA
HETATM   25  H23 UNK   900      27.601 -18.752 -70.284  1.00  0.00     0.209 HD
ENDBRANCH  23  24
ENDBRANCH  19  23
BRANCH  20  26
HETATM   26  O3  UNK   900      26.022 -19.883 -69.067  1.00  0.00    -0.385 OA
HETATM   27  C18 UNK   900      25.950 -18.864 -68.082  1.00  0.00     0.202 C 
ENDBRANCH  20  26
BRANCH  21  28
HETATM   28  O4  UNK   900      23.402 -20.991 -68.559  1.00  0.00    -0.390 OA
HETATM   29  H13 UNK   900      23.894 -20.363 -68.004  1.00  0.00     0.210 HD
ENDBRANCH  21  28
BRANCH  22  30
HETATM   30  O5  UNK   900      22.088 -19.981 -70.803  1.00  0.00    -0.388 OA
HETATM   31  H14 UNK   900      22.443 -19.376 -70.130  1.00  0.00     0.210 HD
ENDBRANCH  22  30
ENDBRANCH  16  17
ENDBRANCH   2  16
BRANCH  11  32
HETATM   32  O8  UNK   900      21.345 -18.782 -73.395  1.00  0.00    -0.355 OA
HETATM   33  C22 UNK   900      20.565 -17.712 -72.871  1.00  0.00     0.210 C 
ENDBRANCH  11  32
BRANCH  15  34
HETATM   34  O9  UNK   900      21.507 -16.118 -77.302  1.00  0.00    -0.356 OA
HETATM   35  C23 UNK   900      22.451 -15.542 -78.203  1.00  0.00     0.210 C 
ENDBRANCH  15  34
TORSDOF 9
ENDMDL
MODEL 5
REMARK VINA RESULT:      -6.1      3.290      8.301
REMARK  9 active torsions:
REMARK  status: ('A' for Active; 'I' for Inactive)
REMARK    1  A    between atoms: O2_2  and  C5_14 
REMARK    2  A    between atoms: O2_2  and  C7_16 
REMARK    3  A    between atoms: O3_3  and  C1_10 
REMARK    4  A    between atoms: O4_4  and  C2_11 
REMARK    5  A    between atoms: O5_5  and  C3_12 
REMARK    6  A    between atoms: O7_7  and  C6_15 
REMARK    7  A    between atoms: O8_8  and  C16_25 
REMARK    8  A    between atoms: O9_9  and  C21_30 
REMARK    9  A    between atoms: C4_13  and  C6_15 
ROOT
HETATM    1  O6  UNK   900      33.052 -36.979 -55.900  1.00  0.00    -0.381 OA
HETATM    2  C7  UNK   900      36.568 -36.423 -57.036  1.00  0.00     0.095 A 
HETATM    3  C8  UNK   900      35.174 -36.559 -57.054  1.00  0.00     0.006 A 
HETATM    4  C9  UNK   900      34.451 -36.135 -58.178  1.00  0.00    -0.044 A 
HETATM    5  C10 UNK   900      32.950 -36.254 -58.193  1.00  0.00     0.070 C 
HETATM    6  C11 UNK   900      32.469 -37.288 -57.170  1.00  0.00     0.122 C 
HETATM    7  C12 UNK   900      37.253 -35.844 -58.117  1.00  0.00     0.042 A 
HETATM    8  C13 UNK   900      34.465 -37.211 -55.896  1.00  0.00     0.210 C 
HETATM    9  C14 UNK   900      36.520 -35.398 -59.241  1.00  0.00    -0.017 A 
HETATM   10  C15 UNK   900      35.125 -35.547 -59.256  1.00  0.00     0.020 A 
HETATM   11  C16 UNK   900      38.650 -35.697 -58.105  1.00  0.00     0.084 A 
HETATM   12  C17 UNK   900      30.956 -37.246 -57.017  1.00  0.00     0.040 C 
HETATM   13  C19 UNK   900      37.206 -34.815 -60.319  1.00  0.00     0.049 A 
HETATM   14  C20 UNK   900      39.315 -35.117 -59.184  1.00  0.00     0.074 A 
HETATM   15  C21 UNK   900      38.594 -34.675 -60.290  1.00  0.00     0.071 A 
ENDROOT
BRANCH   2  16
HETATM   16  O2  UNK   900      37.236 -36.881 -55.932  1.00  0.00    -0.316 OA
BRANCH  16  17
HETATM   17  C5  UNK   900      37.135 -38.273 -55.651  1.00  0.00     0.298 C 
HETATM   18  O1  UNK   900      37.210 -39.038 -56.858  1.00  0.00    -0.348 OA
HETATM   19  C4  UNK   900      37.047 -40.441 -56.632  1.00  0.00     0.179 C 
HETATM   20  C1  UNK   900      38.148 -40.978 -55.708  1.00  0.00     0.183 C 
HETATM   21  C2  UNK   900      38.203 -40.165 -54.412  1.00  0.00     0.183 C 
HETATM   22  C3  UNK   900      38.275 -38.667 -54.712  1.00  0.00     0.205 C 
BRANCH  19  23
HETATM   23  C6  UNK   900      37.069 -41.131 -57.992  1.00  0.00     0.198 C 
BRANCH  23  24
HETATM   24  O7  UNK   900      35.745 -41.500 -58.332  1.00  0.00    -0.398 OA
HETATM   25  H23 UNK   900      35.153 -41.057 -57.703  1.00  0.00     0.209 HD
ENDBRANCH  23  24
ENDBRANCH  19  23
BRANCH  20  26
HETATM   26  O3  UNK   900      37.875 -42.342 -55.399  1.00  0.00    -0.385 OA
HETATM   27  C18 UNK   900      36.705 -42.468 -54.606  1.00  0.00     0.202 C 
ENDBRANCH  20  26
BRANCH  21  28
HETATM   28  O4  UNK   900      39.343 -40.566 -53.656  1.00  0.00    -0.390 OA
HETATM   29  H13 UNK   900      40.119 -40.492 -54.235  1.00  0.00     0.210 HD
ENDBRANCH  21  28
BRANCH  22  30
HETATM   30  O5  UNK   900      39.514 -38.366 -55.361  1.00  0.00    -0.388 OA
HETATM   31  H14 UNK   900      39.826 -39.168 -55.814  1.00  0.00     0.210 HD
ENDBRANCH  22  30
ENDBRANCH  16  17
ENDBRANCH   2  16
BRANCH  11  32
HETATM   32  O8  UNK   900      39.429 -36.103 -57.058  1.00  0.00    -0.355 OA
HETATM   33  C22 UNK   900      40.115 -35.086 -56.334  1.00  0.00     0.210 C 
ENDBRANCH  11  32
BRANCH  15  34
HETATM   34  O9  UNK   900      39.243 -34.109 -61.344  1.00  0.00    -0.356 OA
HETATM   35  C23 UNK   900      40.667 -34.190 -61.348  1.00  0.00     0.210 C 
ENDBRANCH  15  34
TORSDOF 9
ENDMDL
MODEL 6
REMARK VINA RESULT:      -6.0      3.080      4.540
REMARK  9 active torsions:
REMARK  status: ('A' for Active; 'I' for Inactive)
REMARK    1  A    between atoms: O2_2  and  C5_14 
REMARK    2  A    between atoms: O2_2  and  C7_16 
REMARK    3  A    between atoms: O3_3  and  C1_10 
REMARK    4  A    between atoms: O4_4  and  C2_11 
REMARK    5  A    between atoms: O5_5  and  C3_12 
REMARK    6  A    between atoms: O7_7  and  C6_15 
REMARK    7  A    between atoms: O8_8  and  C16_25 
REMARK    8  A    between atoms: O9_9  and  C21_30 
REMARK    9  A    between atoms: C4_13  and  C6_15 
ROOT
HETATM    1  O6  UNK   900      39.897 -34.006 -55.498  1.00  0.00    -0.381 OA
HETATM    2  C7  UNK   900      38.033 -36.887 -56.976  1.00  0.00     0.095 A 
HETATM    3  C8  UNK   900      38.838 -36.129 -56.117  1.00  0.00     0.006 A 
HETATM    4  C9  UNK   900      39.172 -36.637 -54.854  1.00  0.00    -0.044 A 
HETATM    5  C10 UNK   900      40.017 -35.815 -53.915  1.00  0.00     0.070 C 
HETATM    6  C11 UNK   900      40.806 -34.745 -54.676  1.00  0.00     0.122 C 
HETATM    7  C12 UNK   900      37.532 -38.139 -56.583  1.00  0.00     0.042 A 
HETATM    8  C13 UNK   900      39.387 -34.803 -56.573  1.00  0.00     0.210 C 
HETATM    9  C14 UNK   900      37.854 -38.641 -55.300  1.00  0.00    -0.017 A 
HETATM   10  C15 UNK   900      38.669 -37.880 -54.449  1.00  0.00     0.020 A 
HETATM   11  C16 UNK   900      36.718 -38.904 -57.435  1.00  0.00     0.084 A 
HETATM   12  C17 UNK   900      41.475 -33.771 -53.718  1.00  0.00     0.040 C 
HETATM   13  C19 UNK   900      37.349 -39.891 -54.906  1.00  0.00     0.049 A 
HETATM   14  C20 UNK   900      36.226 -40.143 -57.028  1.00  0.00     0.074 A 
HETATM   15  C21 UNK   900      36.540 -40.636 -55.764  1.00  0.00     0.071 A 
ENDROOT
BRANCH   2  16
HETATM   16  O2  UNK   900      37.758 -36.367 -58.213  1.00  0.00    -0.316 OA
BRANCH  16  17
HETATM   17  C5  UNK   900      37.214 -35.051 -58.249  1.00  0.00     0.298 C 
HETATM   18  O1  UNK   900      37.443 -34.445 -59.525  1.00  0.00    -0.348 OA
HETATM   19  C4  UNK   900      36.972 -33.096 -59.587  1.00  0.00     0.179 C 
HETATM   20  C1  UNK   900      35.458 -33.035 -59.343  1.00  0.00     0.183 C 
HETATM   21  C2  UNK   900      35.098 -33.735 -58.030  1.00  0.00     0.183 C 
HETATM   22  C3  UNK   900      35.713 -35.134 -57.974  1.00  0.00     0.205 C 
BRANCH  19  23
HETATM   23  C6  UNK   900      37.341 -32.543 -60.959  1.00  0.00     0.198 C 
BRANCH  23  24
HETATM   24  O7  UNK   900      36.522 -33.165 -61.932  1.00  0.00    -0.398 OA
HETATM   25  H23 UNK   900      35.632 -32.784 -61.843  1.00  0.00     0.209 HD
ENDBRANCH  23  24
ENDBRANCH  19  23
BRANCH  20  26
HETATM   26  O3  UNK   900      35.050 -31.670 -59.277  1.00  0.00    -0.385 OA
HETATM   27  C18 UNK   900      35.710 -30.984 -58.225  1.00  0.00     0.202 C 
ENDBRANCH  20  26
BRANCH  21  28
HETATM   28  O4  UNK   900      33.680 -33.820 -57.917  1.00  0.00    -0.390 OA
HETATM   29  H13 UNK   900      33.365 -34.403 -58.628  1.00  0.00     0.210 HD
ENDBRANCH  21  28
BRANCH  22  30
HETATM   30  O5  UNK   900      35.118 -35.960 -58.980  1.00  0.00    -0.388 OA
HETATM   31  H14 UNK   900      34.805 -35.389 -59.701  1.00  0.00     0.210 HD
ENDBRANCH  22  30
ENDBRANCH  16  17
ENDBRANCH   2  16
BRANCH  11  32
HETATM   32  O8  UNK   900      36.363 -38.490 -58.688  1.00  0.00    -0.355 OA
HETATM   33  C22 UNK   900      36.368 -39.476 -59.716  1.00  0.00     0.210 C 
ENDBRANCH  11  32
BRANCH  15  34
HETATM   34  O9  UNK   900      36.060 -41.846 -55.367  1.00  0.00    -0.356 OA
HETATM   35  C23 UNK   900      36.862 -42.595 -54.455  1.00  0.00     0.210 C 
ENDBRANCH  15  34
TORSDOF 9
ENDMDL
MODEL 7
REMARK VINA RESULT:      -6.0     42.715     45.726
REMARK  9 active torsions:
REMARK  status: ('A' for Active; 'I' for Inactive)
REMARK    1  A    between atoms: O2_2  and  C5_14 
REMARK    2  A    between atoms: O2_2  and  C7_16 
REMARK    3  A    between atoms: O3_3  and  C1_10 
REMARK    4  A    between atoms: O4_4  and  C2_11 
REMARK    5  A    between atoms: O5_5  and  C3_12 
REMARK    6  A    between atoms: O7_7  and  C6_15 
REMARK    7  A    between atoms: O8_8  and  C16_25 
REMARK    8  A    between atoms: O9_9  and  C21_30 
REMARK    9  A    between atoms: C4_13  and  C6_15 
ROOT
HETATM    1  O6  UNK   900       0.544 -67.971 -62.764  1.00  0.00    -0.381 OA
HETATM    2  C7  UNK   900       2.501 -64.930 -61.826  1.00  0.00     0.095 A 
HETATM    3  C8  UNK   900       1.459 -65.749 -62.275  1.00  0.00     0.006 A 
HETATM    4  C9  UNK   900       0.172 -65.213 -62.424  1.00  0.00    -0.044 A 
HETATM    5  C10 UNK   900      -0.960 -66.096 -62.883  1.00  0.00     0.070 C 
HETATM    6  C11 UNK   900      -0.432 -67.341 -63.600  1.00  0.00     0.122 C 
HETATM    7  C12 UNK   900       2.274 -63.583 -61.496  1.00  0.00     0.042 A 
HETATM    8  C13 UNK   900       1.733 -67.182 -62.651  1.00  0.00     0.210 C 
HETATM    9  C14 UNK   900       0.971 -63.050 -61.627  1.00  0.00    -0.017 A 
HETATM   10  C15 UNK   900      -0.067 -63.875 -62.088  1.00  0.00     0.020 A 
HETATM   11  C16 UNK   900       3.312 -62.756 -61.038  1.00  0.00     0.084 A 
HETATM   12  C17 UNK   900      -1.549 -68.342 -63.858  1.00  0.00     0.040 C 
HETATM   13  C19 UNK   900       0.743 -61.705 -61.293  1.00  0.00     0.049 A 
HETATM   14  C20 UNK   900       3.069 -61.422 -60.712  1.00  0.00     0.074 A 
HETATM   15  C21 UNK   900       1.786 -60.897 -60.837  1.00  0.00     0.071 A 
ENDROOT
BRANCH   2  16
HETATM   16  O2  UNK   900       3.748 -65.487 -61.726  1.00  0.00    -0.316 OA
BRANCH  16  17
HETATM   17  C5  UNK   900       4.387 -65.852 -62.945  1.00  0.00     0.298 C 
HETATM   18  O1  UNK   900       4.425 -64.742 -63.847  1.00  0.00    -0.348 OA
HETATM   19  C4  UNK   900       5.000 -65.080 -65.113  1.00  0.00     0.179 C 
HETATM   20  C1  UNK   900       6.451 -65.552 -64.946  1.00  0.00     0.183 C 
HETATM   21  C2  UNK   900       6.528 -66.694 -63.928  1.00  0.00     0.183 C 
HETATM   22  C3  UNK   900       5.810 -66.317 -62.632  1.00  0.00     0.205 C 
BRANCH  19  23
HETATM   23  C6  UNK   900       4.912 -63.844 -66.003  1.00  0.00     0.198 C 
BRANCH  23  24
HETATM   24  O7  UNK   900       4.656 -64.263 -67.331  1.00  0.00    -0.398 OA
HETATM   25  H23 UNK   900       3.987 -63.662 -67.698  1.00  0.00     0.209 HD
ENDBRANCH  23  24
ENDBRANCH  19  23
BRANCH  20  26
HETATM   26  O3  UNK   900       6.943 -66.007 -66.204  1.00  0.00    -0.385 OA
HETATM   27  C18 UNK   900       8.213 -65.445 -66.496  1.00  0.00     0.202 C 
ENDBRANCH  20  26
BRANCH  21  28
HETATM   28  O4  UNK   900       7.896 -66.990 -63.660  1.00  0.00    -0.390 OA
HETATM   29  H13 UNK   900       8.140 -67.760 -64.201  1.00  0.00     0.210 HD
ENDBRANCH  21  28
BRANCH  22  30
HETATM   30  O5  UNK   900       6.503 -65.239 -61.995  1.00  0.00    -0.388 OA
HETATM   31  H14 UNK   900       5.913 -64.467 -61.970  1.00  0.00     0.210 HD
ENDBRANCH  22  30
ENDBRANCH  16  17
ENDBRANCH   2  16
BRANCH  11  32
HETATM   32  O8  UNK   900       4.597 -63.195 -60.885  1.00  0.00    -0.355 OA
HETATM   33  C22 UNK   900       5.349 -62.623 -59.819  1.00  0.00     0.210 C 
ENDBRANCH  11  32
BRANCH  15  34
HETATM   34  O9  UNK   900       1.549 -59.595 -60.519  1.00  0.00    -0.356 OA
HETATM   35  C23 UNK   900       1.095 -58.743 -61.568  1.00  0.00     0.210 C 
ENDBRANCH  15  34
TORSDOF 9
ENDMDL
MODEL 8
REMARK VINA RESULT:      -5.7     43.557     47.501
REMARK  9 active torsions:
REMARK  status: ('A' for Active; 'I' for Inactive)
REMARK    1  A    between atoms: O2_2  and  C5_14 
REMARK    2  A    between atoms: O2_2  and  C7_16 
REMARK    3  A    between atoms: O3_3  and  C1_10 
REMARK    4  A    between atoms: O4_4  and  C2_11 
REMARK    5  A    between atoms: O5_5  and  C3_12 
REMARK    6  A    between atoms: O7_7  and  C6_15 
REMARK    7  A    between atoms: O8_8  and  C16_25 
REMARK    8  A    between atoms: O9_9  and  C21_30 
REMARK    9  A    between atoms: C4_13  and  C6_15 
ROOT
HETATM    1  O6  UNK   900       8.584 -67.268 -50.409  1.00  0.00    -0.381 OA
HETATM    2  C7  UNK   900       5.366 -66.551 -48.651  1.00  0.00     0.095 A 
HETATM    3  C8  UNK   900       6.321 -66.686 -49.666  1.00  0.00     0.006 A 
HETATM    4  C9  UNK   900       5.915 -66.654 -51.007  1.00  0.00    -0.044 A 
HETATM    5  C10 UNK   900       6.934 -66.826 -52.104  1.00  0.00     0.070 C 
HETATM    6  C11 UNK   900       8.345 -66.511 -51.599  1.00  0.00     0.122 C 
HETATM    7  C12 UNK   900       4.002 -66.409 -48.954  1.00  0.00     0.042 A 
HETATM    8  C13 UNK   900       7.781 -66.807 -49.317  1.00  0.00     0.210 C 
HETATM    9  C14 UNK   900       3.592 -66.398 -50.307  1.00  0.00    -0.017 A 
HETATM   10  C15 UNK   900       4.556 -66.524 -51.319  1.00  0.00     0.020 A 
HETATM   11  C16 UNK   900       3.036 -66.280 -47.942  1.00  0.00     0.084 A 
HETATM   12  C17 UNK   900       9.396 -66.902 -52.627  1.00  0.00     0.040 C 
HETATM   13  C19 UNK   900       2.227 -66.261 -50.609  1.00  0.00     0.049 A 
HETATM   14  C20 UNK   900       1.686 -66.144 -48.260  1.00  0.00     0.074 A 
HETATM   15  C21 UNK   900       1.281 -66.136 -49.591  1.00  0.00     0.071 A 
ENDROOT
BRANCH   2  16
HETATM   16  O2  UNK   900       5.812 -66.555 -47.356  1.00  0.00    -0.316 OA
BRANCH  16  17
HETATM   17  C5  UNK   900       5.704 -67.783 -46.644  1.00  0.00     0.298 C 
HETATM   18  O1  UNK   900       6.336 -68.844 -47.366  1.00  0.00    -0.348 OA
HETATM   19  C4  UNK   900       6.195 -70.112 -46.719  1.00  0.00     0.179 C 
HETATM   20  C1  UNK   900       6.841 -70.091 -45.328  1.00  0.00     0.183 C 
HETATM   21  C2  UNK   900       6.286 -68.930 -44.498  1.00  0.00     0.183 C 
HETATM   22  C3  UNK   900       6.368 -67.617 -45.277  1.00  0.00     0.205 C 
BRANCH  19  23
HETATM   23  C6  UNK   900       6.838 -71.161 -47.620  1.00  0.00     0.198 C 
BRANCH  23  24
HETATM   24  O7  UNK   900       8.132 -71.450 -47.123  1.00  0.00    -0.398 OA
HETATM   25  H23 UNK   900       8.149 -72.395 -46.898  1.00  0.00     0.209 HD
ENDBRANCH  23  24
ENDBRANCH  19  23
BRANCH  20  26
HETATM   26  O3  UNK   900       6.563 -71.321 -44.664  1.00  0.00    -0.385 OA
HETATM   27  C18 UNK   900       5.178 -71.455 -44.383  1.00  0.00     0.202 C 
ENDBRANCH  20  26
BRANCH  21  28
HETATM   28  O4  UNK   900       7.027 -68.825 -43.285  1.00  0.00    -0.390 OA
HETATM   29  H13 UNK   900       6.399 -68.598 -42.578  1.00  0.00     0.210 HD
ENDBRANCH  21  28
BRANCH  22  30
HETATM   30  O5  UNK   900       7.739 -67.267 -45.485  1.00  0.00    -0.388 OA
HETATM   31  H14 UNK   900       8.069 -67.760 -46.255  1.00  0.00     0.210 HD
ENDBRANCH  22  30
ENDBRANCH  16  17
ENDBRANCH   2  16
BRANCH  11  32
HETATM   32  O8  UNK   900       3.351 -66.281 -46.612  1.00  0.00    -0.355 OA
HETATM   33  C22 UNK   900       2.286 -66.527 -45.699  1.00  0.00     0.210 C 
ENDBRANCH  11  32
BRANCH  15  34
HETATM   34  O9  UNK   900      -0.038 -66.003 -49.901  1.00  0.00    -0.356 OA
HETATM   35  C23 UNK   900      -0.740 -67.188 -50.274  1.00  0.00     0.210 C 
ENDBRANCH  15  34
TORSDOF 9
ENDMDL
MODEL 9
REMARK VINA RESULT:      -5.7      1.964      5.650
REMARK  9 active torsions:
REMARK  status: ('A' for Active; 'I' for Inactive)
REMARK    1  A    between atoms: O2_2  and  C5_14 
REMARK    2  A    between atoms: O2_2  and  C7_16 
REMARK    3  A    between atoms: O3_3  and  C1_10 
REMARK    4  A    between atoms: O4_4  and  C2_11 
REMARK    5  A    between atoms: O5_5  and  C3_12 
REMARK    6  A    between atoms: O7_7  and  C6_15 
REMARK    7  A    between atoms: O8_8  and  C16_25 
REMARK    8  A    between atoms: O9_9  and  C21_30 
REMARK    9  A    between atoms: C4_13  and  C6_15 
ROOT
HETATM    1  O6  UNK   900      33.431 -34.658 -58.655  1.00  0.00    -0.381 OA
HETATM    2  C7  UNK   900      36.555 -33.286 -60.178  1.00  0.00     0.095 A 
HETATM    3  C8  UNK   900      35.672 -34.139 -59.505  1.00  0.00     0.006 A 
HETATM    4  C9  UNK   900      36.051 -35.464 -59.245  1.00  0.00    -0.044 A 
HETATM    5  C10 UNK   900      35.095 -36.394 -58.545  1.00  0.00     0.070 C 
HETATM    6  C11 UNK   900      34.031 -35.610 -57.771  1.00  0.00     0.122 C 
HETATM    7  C12 UNK   900      37.807 -33.744 -60.621  1.00  0.00     0.042 A 
HETATM    8  C13 UNK   900      34.347 -33.618 -59.013  1.00  0.00     0.210 C 
HETATM    9  C14 UNK   900      38.179 -35.086 -60.377  1.00  0.00    -0.017 A 
HETATM   10  C15 UNK   900      37.293 -35.931 -59.693  1.00  0.00     0.020 A 
HETATM   11  C16 UNK   900      38.697 -32.897 -61.303  1.00  0.00     0.084 A 
HETATM   12  C17 UNK   900      32.935 -36.532 -57.256  1.00  0.00     0.040 C 
HETATM   13  C19 UNK   900      39.430 -35.543 -60.824  1.00  0.00     0.049 A 
HETATM   14  C20 UNK   900      39.935 -33.368 -61.740  1.00  0.00     0.074 A 
HETATM   15  C21 UNK   900      40.300 -34.690 -61.502  1.00  0.00     0.071 A 
ENDROOT
BRANCH   2  16
HETATM   16  O2  UNK   900      36.156 -31.992 -60.381  1.00  0.00    -0.316 OA
BRANCH  16  17
HETATM   17  C5  UNK   900      36.167 -31.132 -59.247  1.00  0.00     0.298 C 
HETATM   18  O1  UNK   900      37.462 -31.114 -58.639  1.00  0.00    -0.348 OA
HETATM   19  C4  UNK   900      37.504 -30.313 -57.455  1.00  0.00     0.179 C 
HETATM   20  C1  UNK   900      37.153 -28.852 -57.770  1.00  0.00     0.183 C 
HETATM   21  C2  UNK   900      35.811 -28.771 -58.502  1.00  0.00     0.183 C 
HETATM   22  C3  UNK   900      35.785 -29.722 -59.698  1.00  0.00     0.205 C 
BRANCH  19  23
HETATM   23  C6  UNK   900      38.905 -30.438 -56.864  1.00  0.00     0.198 C 
BRANCH  23  24
HETATM   24  O7  UNK   900      38.805 -30.386 -55.453  1.00  0.00    -0.398 OA
HETATM   25  H23 UNK   900      39.695 -30.546 -55.096  1.00  0.00     0.209 HD
ENDBRANCH  23  24
ENDBRANCH  19  23
BRANCH  20  26
HETATM   26  O3  UNK   900      37.072 -28.117 -56.552  1.00  0.00    -0.385 OA
HETATM   27  C18 UNK   900      37.956 -27.006 -56.559  1.00  0.00     0.202 C 
ENDBRANCH  20  26
BRANCH  21  28
HETATM   28  O4  UNK   900      35.596 -27.431 -58.938  1.00  0.00    -0.390 OA
HETATM   29  H13 UNK   900      34.792 -27.426 -59.484  1.00  0.00     0.210 HD
ENDBRANCH  21  28
BRANCH  22  30
HETATM   30  O5  UNK   900      36.737 -29.291 -60.676  1.00  0.00    -0.388 OA
HETATM   31  H14 UNK   900      36.368 -28.525 -61.147  1.00  0.00     0.210 HD
ENDBRANCH  22  30
ENDBRANCH  16  17
ENDBRANCH   2  16
BRANCH  11  32
HETATM   32  O8  UNK   900      38.412 -31.589 -61.578  1.00  0.00    -0.355 OA
HETATM   33  C22 UNK   900      39.085 -31.004 -62.688  1.00  0.00     0.210 C 
ENDBRANCH  11  32
BRANCH  15  34
HETATM   34  O9  UNK   900      41.509 -35.149 -61.928  1.00  0.00    -0.356 OA
HETATM   35  C23 UNK   900      41.501 -36.145 -62.949  1.00  0.00     0.210 C 
ENDBRANCH  15  34
TORSDOF 9
ENDMDL
