MODEL 1
REMARK VINA RESULT:      -7.7      0.000      0.000
REMARK  3 active torsions:
REMARK  status: ('A' for Active; 'I' for Inactive)
REMARK    1  A    between atoms: C1_7  and  C3_9 
REMARK    2  A    between atoms: C2_8  and  C4_10 
REMARK    3  A    between atoms: C4_10  and  C9_15 
ROOT
HETATM    1  O1  UNK   900      26.677 -37.986 -68.742  1.00  0.00    -0.271 OA
HETATM    2  O2  UNK   900      21.917 -35.768 -69.415  1.00  0.00    -0.271 OA
HETATM    3  N1  UNK   900      23.866 -35.969 -68.206  1.00  0.00    -0.346 N 
HETATM    4  N2  UNK   900      24.611 -37.979 -69.756  1.00  0.00    -0.346 N 
HETATM    5  C1  UNK   900      24.844 -36.867 -67.611  1.00  0.00     0.180 C 
HETATM    6  C2  UNK   900      23.172 -37.839 -69.590  1.00  0.00     0.180 C 
HETATM    7  C5  UNK   900      25.502 -37.625 -68.755  1.00  0.00     0.241 C 
HETATM    8  C6  UNK   900      22.918 -36.414 -69.115  1.00  0.00     0.241 C 
HETATM    9  H6  UNK   900      23.719 -35.047 -67.808  1.00  0.00     0.163 HD
HETATM   10  H7  UNK   900      24.972 -38.536 -70.524  1.00  0.00     0.163 HD
ENDROOT
BRANCH   6  11
HETATM   11  C4  UNK   900      22.433 -38.146 -70.883  1.00  0.00     0.073 C 
BRANCH  11  12
HETATM   12  C9  UNK   900      21.483 -39.305 -70.726  1.00  0.00    -0.053 A 
HETATM   13  C10 UNK   900      20.811 -39.808 -71.842  1.00  0.00     0.047 A 
HETATM   14  C12 UNK   900      19.950 -40.869 -71.646  1.00  0.00     0.105 A 
HETATM   15  O3  UNK   900      19.212 -41.486 -72.608  1.00  0.00    -0.323 OA
HETATM   16  C13 UNK   900      19.753 -41.422 -70.401  1.00  0.00     0.105 A 
HETATM   17  C15 UNK   900      18.528 -42.489 -71.830  1.00  0.00     0.352 A 
HETATM   18  O4  UNK   900      18.867 -42.453 -70.428  1.00  0.00    -0.323 OA
HETATM   19  C14 UNK   900      20.405 -40.944 -69.283  1.00  0.00     0.040 A 
HETATM   20  C11 UNK   900      21.282 -39.869 -69.454  1.00  0.00     0.010 A 
ENDBRANCH  11  12
ENDBRANCH   6  11
BRANCH   5  21
HETATM   21  C3  UNK   900      25.860 -36.103 -66.776  1.00  0.00     0.009 C 
HETATM   22  C7  UNK   900      25.320 -35.839 -65.370  1.00  0.00     0.012 C 
HETATM   23  C8  UNK   900      26.239 -34.785 -67.456  1.00  0.00     0.012 C 
ENDBRANCH   5  21
TORSDOF 3
ENDMDL
MODEL 2
REMARK VINA RESULT:      -7.5     13.676     15.514
REMARK  3 active torsions:
REMARK  status: ('A' for Active; 'I' for Inactive)
REMARK    1  A    between atoms: C1_7  and  C3_9 
REMARK    2  A    between atoms: C2_8  and  C4_10 
REMARK    3  A    between atoms: C4_10  and  C9_15 
ROOT
HETATM    1  O1  UNK   900      30.602 -49.634 -58.811  1.00  0.00    -0.271 OA
HETATM    2  O2  UNK   900      31.378 -50.289 -64.007  1.00  0.00    -0.271 OA
HETATM    3  N1  UNK   900      32.085 -50.587 -61.836  1.00  0.00    -0.346 N 
HETATM    4  N2  UNK   900      30.072 -49.096 -60.986  1.00  0.00    -0.346 N 
HETATM    5  C1  UNK   900      32.283 -49.986 -60.526  1.00  0.00     0.180 C 
HETATM    6  C2  UNK   900      30.565 -48.754 -62.311  1.00  0.00     0.180 C 
HETATM    7  C5  UNK   900      30.906 -49.604 -60.002  1.00  0.00     0.241 C 
HETATM    8  C6  UNK   900      31.334 -49.965 -62.822  1.00  0.00     0.241 C 
HETATM    9  H6  UNK   900      32.666 -51.366 -62.128  1.00  0.00     0.163 HD
HETATM   10  H7  UNK   900      29.157 -48.768 -60.694  1.00  0.00     0.163 HD
ENDROOT
BRANCH   6  11
HETATM   11  C4  UNK   900      29.426 -48.370 -63.243  1.00  0.00     0.073 C 
BRANCH  11  12
HETATM   12  C9  UNK   900      29.744 -47.131 -64.037  1.00  0.00    -0.053 A 
HETATM   13  C10 UNK   900      30.862 -46.362 -63.706  1.00  0.00     0.047 A 
HETATM   14  C12 UNK   900      31.111 -45.234 -64.463  1.00  0.00     0.105 A 
HETATM   15  O3  UNK   900      32.146 -44.368 -64.288  1.00  0.00    -0.323 OA
HETATM   16  C13 UNK   900      30.296 -44.870 -65.510  1.00  0.00     0.105 A 
HETATM   17  C15 UNK   900      31.891 -43.418 -65.342  1.00  0.00     0.352 A 
HETATM   18  O4  UNK   900      30.717 -43.731 -66.121  1.00  0.00    -0.323 OA
HETATM   19  C14 UNK   900      29.186 -45.613 -65.857  1.00  0.00     0.040 A 
HETATM   20  C11 UNK   900      28.911 -46.758 -65.107  1.00  0.00     0.010 A 
ENDBRANCH  11  12
ENDBRANCH   6  11
BRANCH   5  21
HETATM   21  C3  UNK   900      33.006 -50.938 -59.586  1.00  0.00     0.009 C 
HETATM   22  C7  UNK   900      34.457 -51.139 -60.025  1.00  0.00     0.012 C 
HETATM   23  C8  UNK   900      32.281 -52.284 -59.513  1.00  0.00     0.012 C 
ENDBRANCH   5  21
TORSDOF 3
ENDMDL
MODEL 3
REMARK VINA RESULT:      -7.3      2.281      6.935
REMARK  3 active torsions:
REMARK  status: ('A' for Active; 'I' for Inactive)
REMARK    1  A    between atoms: C1_7  and  C3_9 
REMARK    2  A    between atoms: C2_8  and  C4_10 
REMARK    3  A    between atoms: C4_10  and  C9_15 
ROOT
HETATM    1  O1  UNK   900      20.057 -39.905 -68.920  1.00  0.00    -0.271 OA
HETATM    2  O2  UNK   900      24.943 -38.790 -70.625  1.00  0.00    -0.271 OA
HETATM    3  N1  UNK   900      22.761 -39.366 -71.078  1.00  0.00    -0.346 N 
HETATM    4  N2  UNK   900      22.299 -39.620 -68.485  1.00  0.00    -0.346 N 
HETATM    5  C1  UNK   900      21.631 -40.219 -70.741  1.00  0.00     0.180 C 
HETATM    6  C2  UNK   900      23.666 -39.911 -68.891  1.00  0.00     0.180 C 
HETATM    7  C5  UNK   900      21.218 -39.865 -69.319  1.00  0.00     0.241 C 
HETATM    8  C6  UNK   900      23.870 -39.259 -70.252  1.00  0.00     0.241 C 
HETATM    9  H6  UNK   900      22.856 -39.002 -72.020  1.00  0.00     0.163 HD
HETATM   10  H7  UNK   900      22.098 -39.434 -67.508  1.00  0.00     0.163 HD
ENDROOT
BRANCH   6  11
HETATM   11  C4  UNK   900      24.667 -39.406 -67.864  1.00  0.00     0.073 C 
BRANCH  11  12
HETATM   12  C9  UNK   900      24.181 -38.157 -67.175  1.00  0.00    -0.053 A 
HETATM   13  C10 UNK   900      24.395 -36.910 -67.766  1.00  0.00     0.047 A 
HETATM   14  C12 UNK   900      23.933 -35.796 -67.095  1.00  0.00     0.105 A 
HETATM   15  O3  UNK   900      24.051 -34.507 -67.514  1.00  0.00    -0.323 OA
HETATM   16  C13 UNK   900      23.282 -35.896 -65.887  1.00  0.00     0.105 A 
HETATM   17  C15 UNK   900      23.402 -33.805 -66.434  1.00  0.00     0.352 A 
HETATM   18  O4  UNK   900      22.912 -34.682 -65.398  1.00  0.00    -0.323 OA
HETATM   19  C14 UNK   900      23.058 -37.116 -65.282  1.00  0.00     0.040 A 
HETATM   20  C11 UNK   900      23.517 -38.259 -65.940  1.00  0.00     0.010 A 
ENDBRANCH  11  12
ENDBRANCH   6  11
BRANCH   5  21
HETATM   21  C3  UNK   900      20.488 -40.034 -71.727  1.00  0.00     0.009 C 
HETATM   22  C7  UNK   900      19.651 -41.310 -71.834  1.00  0.00     0.012 C 
HETATM   23  C8  UNK   900      21.018 -39.629 -73.104  1.00  0.00     0.012 C 
ENDBRANCH   5  21
TORSDOF 3
ENDMDL
MODEL 4
REMARK VINA RESULT:      -7.2      2.375      7.109
REMARK  3 active torsions:
REMARK  status: ('A' for Active; 'I' for Inactive)
REMARK    1  A    between atoms: C1_7  and  C3_9 
REMARK    2  A    between atoms: C2_8  and  C4_10 
REMARK    3  A    between atoms: C4_10  and  C9_15 
ROOT
HETATM    1  O1  UNK   900      20.619 -39.046 -68.252  1.00  0.00    -0.271 OA
HETATM    2  O2  UNK   900      24.647 -38.640 -71.663  1.00  0.00    -0.271 OA
HETATM    3  N1  UNK   900      22.560 -39.458 -71.136  1.00  0.00    -0.346 N 
HETATM    4  N2  UNK   900      22.810 -38.491 -68.686  1.00  0.00    -0.346 N 
HETATM    5  C1  UNK   900      21.721 -40.104 -70.137  1.00  0.00     0.180 C 
HETATM    6  C2  UNK   900      24.063 -38.877 -69.318  1.00  0.00     0.180 C 
HETATM    7  C5  UNK   900      21.618 -39.145 -68.960  1.00  0.00     0.241 C 
HETATM    8  C6  UNK   900      23.802 -38.928 -70.818  1.00  0.00     0.241 C 
HETATM    9  H6  UNK   900      22.352 -39.573 -72.122  1.00  0.00     0.163 HD
HETATM   10  H7  UNK   900      22.828 -37.879 -67.877  1.00  0.00     0.163 HD
ENDROOT
BRANCH   6  11
HETATM   11  C4  UNK   900      25.180 -37.906 -68.969  1.00  0.00     0.073 C 
BRANCH  11  12
HETATM   12  C9  UNK   900      24.656 -36.519 -68.706  1.00  0.00    -0.053 A 
HETATM   13  C10 UNK   900      24.222 -36.173 -67.424  1.00  0.00     0.047 A 
HETATM   14  C12 UNK   900      23.749 -34.890 -67.233  1.00  0.00     0.105 A 
HETATM   15  O3  UNK   900      23.285 -34.377 -66.061  1.00  0.00    -0.323 OA
HETATM   16  C13 UNK   900      23.702 -33.975 -68.259  1.00  0.00     0.105 A 
HETATM   17  C15 UNK   900      22.941 -33.036 -66.464  1.00  0.00     0.352 A 
HETATM   18  O4  UNK   900      23.203 -32.775 -67.859  1.00  0.00    -0.323 OA
HETATM   19  C14 UNK   900      24.125 -34.292 -69.534  1.00  0.00     0.040 A 
HETATM   20  C11 UNK   900      24.607 -35.584 -69.754  1.00  0.00     0.010 A 
ENDBRANCH  11  12
ENDBRANCH   6  11
BRANCH   5  21
HETATM   21  C3  UNK   900      20.355 -40.453 -70.708  1.00  0.00     0.009 C 
HETATM   22  C7  UNK   900      19.893 -41.824 -70.212  1.00  0.00     0.012 C 
HETATM   23  C8  UNK   900      20.381 -40.420 -72.237  1.00  0.00     0.012 C 
ENDBRANCH   5  21
TORSDOF 3
ENDMDL
MODEL 5
REMARK VINA RESULT:      -6.7     17.438     19.743
REMARK  3 active torsions:
REMARK  status: ('A' for Active; 'I' for Inactive)
REMARK    1  A    between atoms: C1_7  and  C3_9 
REMARK    2  A    between atoms: C2_8  and  C4_10 
REMARK    3  A    between atoms: C4_10  and  C9_15 
ROOT
HETATM    1  O1  UNK   900      31.554 -52.167 -85.458  1.00  0.00    -0.271 OA
HETATM    2  O2  UNK   900      28.910 -50.402 -81.224  1.00  0.00    -0.271 OA
HETATM    3  N1  UNK   900      29.799 -52.151 -82.428  1.00  0.00    -0.346 N 
HETATM    4  N2  UNK   900      30.407 -50.482 -84.388  1.00  0.00    -0.346 N 
HETATM    5  C1  UNK   900      29.959 -52.776 -83.733  1.00  0.00     0.180 C 
HETATM    6  C2  UNK   900      29.234 -50.108 -83.612  1.00  0.00     0.180 C 
HETATM    7  C5  UNK   900      30.760 -51.807 -84.591  1.00  0.00     0.241 C 
HETATM    8  C6  UNK   900      29.324 -50.856 -82.288  1.00  0.00     0.241 C 
HETATM    9  H6  UNK   900      29.826 -52.721 -81.589  1.00  0.00     0.163 HD
HETATM   10  H7  UNK   900      30.862 -49.786 -84.970  1.00  0.00     0.163 HD
ENDROOT
BRANCH   6  11
HETATM   11  C4  UNK   900      29.162 -48.603 -83.410  1.00  0.00     0.073 C 
BRANCH  11  12
HETATM   12  C9  UNK   900      27.801 -48.055 -83.753  1.00  0.00    -0.053 A 
HETATM   13  C10 UNK   900      26.759 -48.156 -82.828  1.00  0.00     0.047 A 
HETATM   14  C12 UNK   900      25.531 -47.640 -83.190  1.00  0.00     0.105 A 
HETATM   15  O3  UNK   900      24.405 -47.649 -82.425  1.00  0.00    -0.323 OA
HETATM   16  C13 UNK   900      25.327 -47.044 -84.413  1.00  0.00     0.105 A 
HETATM   17  C15 UNK   900      23.470 -46.992 -83.304  1.00  0.00     0.352 A 
HETATM   18  O4  UNK   900      24.048 -46.606 -84.568  1.00  0.00    -0.323 OA
HETATM   19  C14 UNK   900      26.340 -46.932 -85.344  1.00  0.00     0.040 A 
HETATM   20  C11 UNK   900      27.593 -47.446 -85.003  1.00  0.00     0.010 A 
ENDBRANCH  11  12
ENDBRANCH   6  11
BRANCH   5  21
HETATM   21  C3  UNK   900      30.641 -54.130 -83.616  1.00  0.00     0.009 C 
HETATM   22  C7  UNK   900      29.758 -55.236 -84.196  1.00  0.00     0.012 C 
HETATM   23  C8  UNK   900      30.990 -54.438 -82.159  1.00  0.00     0.012 C 
ENDBRANCH   5  21
TORSDOF 3
ENDMDL
MODEL 6
REMARK VINA RESULT:      -6.3     12.496     14.709
REMARK  3 active torsions:
REMARK  status: ('A' for Active; 'I' for Inactive)
REMARK    1  A    between atoms: C1_7  and  C3_9 
REMARK    2  A    between atoms: C2_8  and  C4_10 
REMARK    3  A    between atoms: C4_10  and  C9_15 
ROOT
HETATM    1  O1  UNK   900      29.800 -48.135 -60.847  1.00  0.00    -0.271 OA
HETATM    2  O2  UNK   900      33.542 -49.073 -64.472  1.00  0.00    -0.271 OA
HETATM    3  N1  UNK   900      32.822 -49.160 -62.288  1.00  0.00    -0.346 N 
HETATM    4  N2  UNK   900      30.657 -47.795 -62.956  1.00  0.00    -0.346 N 
HETATM    5  C1  UNK   900      32.182 -48.455 -61.187  1.00  0.00     0.180 C 
HETATM    6  C2  UNK   900      31.833 -47.502 -63.761  1.00  0.00     0.180 C 
HETATM    7  C5  UNK   900      30.753 -48.160 -61.622  1.00  0.00     0.241 C 
HETATM    8  C6  UNK   900      32.790 -48.674 -63.586  1.00  0.00     0.241 C 
HETATM    9  H6  UNK   900      33.485 -49.903 -62.094  1.00  0.00     0.163 HD
HETATM   10  H7  UNK   900      29.740 -47.529 -63.299  1.00  0.00     0.163 HD
ENDROOT
BRANCH   6  11
HETATM   11  C4  UNK   900      31.464 -47.283 -65.220  1.00  0.00     0.073 C 
BRANCH  11  12
HETATM   12  C9  UNK   900      31.767 -45.878 -65.670  1.00  0.00    -0.053 A 
HETATM   13  C10 UNK   900      30.722 -44.971 -65.861  1.00  0.00     0.047 A 
HETATM   14  C12 UNK   900      31.050 -43.695 -66.276  1.00  0.00     0.105 A 
HETATM   15  O3  UNK   900      30.172 -42.683 -66.513  1.00  0.00    -0.323 OA
HETATM   16  C13 UNK   900      32.355 -43.318 -66.496  1.00  0.00     0.105 A 
HETATM   17  C15 UNK   900      31.070 -41.626 -66.908  1.00  0.00     0.352 A 
HETATM   18  O4  UNK   900      32.457 -42.023 -66.899  1.00  0.00    -0.323 OA
HETATM   19  C14 UNK   900      33.405 -44.195 -66.314  1.00  0.00     0.040 A 
HETATM   20  C11 UNK   900      33.100 -45.493 -65.896  1.00  0.00     0.010 A 
ENDBRANCH  11  12
ENDBRANCH   6  11
BRANCH   5  21
HETATM   21  C3  UNK   900      32.228 -49.275 -59.906  1.00  0.00     0.009 C 
HETATM   22  C7  UNK   900      33.555 -49.067 -59.175  1.00  0.00     0.012 C 
HETATM   23  C8  UNK   900      32.012 -50.760 -60.204  1.00  0.00     0.012 C 
ENDBRANCH   5  21
TORSDOF 3
ENDMDL
MODEL 7
REMARK VINA RESULT:      -6.2      2.560      7.167
REMARK  3 active torsions:
REMARK  status: ('A' for Active; 'I' for Inactive)
REMARK    1  A    between atoms: C1_7  and  C3_9 
REMARK    2  A    between atoms: C2_8  and  C4_10 
REMARK    3  A    between atoms: C4_10  and  C9_15 
ROOT
HETATM    1  O1  UNK   900      19.872 -37.989 -70.927  1.00  0.00    -0.271 OA
HETATM    2  O2  UNK   900      25.131 -38.105 -70.324  1.00  0.00    -0.271 OA
HETATM    3  N1  UNK   900      23.190 -39.101 -71.059  1.00  0.00    -0.346 N 
HETATM    4  N2  UNK   900      21.782 -37.157 -69.947  1.00  0.00    -0.346 N 
HETATM    5  C1  UNK   900      21.807 -39.444 -70.759  1.00  0.00     0.180 C 
HETATM    6  C2  UNK   900      23.038 -37.458 -69.278  1.00  0.00     0.180 C 
HETATM    7  C5  UNK   900      21.050 -38.133 -70.606  1.00  0.00     0.241 C 
HETATM    8  C6  UNK   900      23.907 -38.203 -70.283  1.00  0.00     0.241 C 
HETATM    9  H6  UNK   900      23.722 -39.671 -71.707  1.00  0.00     0.163 HD
HETATM   10  H7  UNK   900      21.316 -36.275 -69.760  1.00  0.00     0.163 HD
ENDROOT
BRANCH   6  11
HETATM   11  C4  UNK   900      23.713 -36.191 -68.773  1.00  0.00     0.073 C 
BRANCH  11  12
HETATM   12  C9  UNK   900      23.824 -36.175 -67.271  1.00  0.00    -0.053 A 
HETATM   13  C10 UNK   900      23.446 -37.300 -66.535  1.00  0.00     0.047 A 
HETATM   14  C12 UNK   900      23.565 -37.236 -65.161  1.00  0.00     0.105 A 
HETATM   15  O3  UNK   900      23.246 -38.227 -64.285  1.00  0.00    -0.323 OA
HETATM   16  C13 UNK   900      24.040 -36.111 -64.527  1.00  0.00     0.105 A 
HETATM   17  C15 UNK   900      23.573 -37.600 -63.028  1.00  0.00     0.352 A 
HETATM   18  O4  UNK   900      24.076 -36.256 -63.175  1.00  0.00    -0.323 OA
HETATM   19  C14 UNK   900      24.420 -34.987 -65.231  1.00  0.00     0.040 A 
HETATM   20  C11 UNK   900      24.308 -35.025 -66.623  1.00  0.00     0.010 A 
ENDBRANCH  11  12
ENDBRANCH   6  11
BRANCH   5  21
HETATM   21  C3  UNK   900      21.209 -40.323 -71.847  1.00  0.00     0.009 C 
HETATM   22  C7  UNK   900      21.111 -39.560 -73.169  1.00  0.00     0.012 C 
HETATM   23  C8  UNK   900      19.833 -40.844 -71.429  1.00  0.00     0.012 C 
ENDBRANCH   5  21
TORSDOF 3
ENDMDL
MODEL 8
REMARK VINA RESULT:      -5.9     15.986     18.007
REMARK  3 active torsions:
REMARK  status: ('A' for Active; 'I' for Inactive)
REMARK    1  A    between atoms: C1_7  and  C3_9 
REMARK    2  A    between atoms: C2_8  and  C4_10 
REMARK    3  A    between atoms: C4_10  and  C9_15 
ROOT
HETATM    1  O1  UNK   900      38.661 -33.491 -59.410  1.00  0.00    -0.271 OA
HETATM    2  O2  UNK   900      33.948 -31.156 -58.812  1.00  0.00    -0.271 OA
HETATM    3  N1  UNK   900      36.241 -31.086 -58.624  1.00  0.00    -0.346 N 
HETATM    4  N2  UNK   900      36.366 -33.638 -59.311  1.00  0.00    -0.346 N 
HETATM    5  C1  UNK   900      37.450 -31.774 -58.195  1.00  0.00     0.180 C 
HETATM    6  C2  UNK   900      35.150 -33.255 -58.610  1.00  0.00     0.180 C 
HETATM    7  C5  UNK   900      37.581 -33.018 -59.062  1.00  0.00     0.241 C 
HETATM    8  C6  UNK   900      35.025 -31.743 -58.736  1.00  0.00     0.241 C 
HETATM    9  H6  UNK   900      36.216 -30.072 -58.640  1.00  0.00     0.163 HD
HETATM   10  H7  UNK   900      36.387 -34.506 -59.836  1.00  0.00     0.163 HD
ENDROOT
BRANCH   6  11
HETATM   11  C4  UNK   900      33.936 -33.974 -59.177  1.00  0.00     0.073 C 
BRANCH  11  12
HETATM   12  C9  UNK   900      33.519 -35.137 -58.315  1.00  0.00    -0.053 A 
HETATM   13  C10 UNK   900      34.363 -35.583 -57.295  1.00  0.00     0.047 A 
HETATM   14  C12 UNK   900      33.937 -36.652 -56.534  1.00  0.00     0.105 A 
HETATM   15  O3  UNK   900      34.621 -37.222 -55.504  1.00  0.00    -0.323 OA
HETATM   16  C13 UNK   900      32.726 -37.265 -56.758  1.00  0.00     0.105 A 
HETATM   17  C15 UNK   900      33.705 -38.262 -55.107  1.00  0.00     0.352 A 
HETATM   18  O4  UNK   900      32.501 -38.295 -55.899  1.00  0.00    -0.323 OA
HETATM   19  C14 UNK   900      31.873 -36.843 -57.758  1.00  0.00     0.040 A 
HETATM   20  C11 UNK   900      32.281 -35.764 -58.545  1.00  0.00     0.010 A 
ENDBRANCH  11  12
ENDBRANCH   6  11
BRANCH   5  21
HETATM   21  C3  UNK   900      38.668 -30.871 -58.308  1.00  0.00     0.009 C 
HETATM   22  C7  UNK   900      38.984 -30.213 -56.965  1.00  0.00     0.012 C 
HETATM   23  C8  UNK   900      38.456 -29.805 -59.385  1.00  0.00     0.012 C 
ENDBRANCH   5  21
TORSDOF 3
ENDMDL
MODEL 9
REMARK VINA RESULT:      -5.6     36.933     38.316
REMARK  3 active torsions:
REMARK  status: ('A' for Active; 'I' for Inactive)
REMARK    1  A    between atoms: C1_7  and  C3_9 
REMARK    2  A    between atoms: C2_8  and  C4_10 
REMARK    3  A    between atoms: C4_10  and  C9_15 
ROOT
HETATM    1  O1  UNK   900      27.608 -57.738 -36.083  1.00  0.00    -0.271 OA
HETATM    2  O2  UNK   900      27.528 -61.668 -39.629  1.00  0.00    -0.271 OA
HETATM    3  N1  UNK   900      28.457 -59.712 -38.847  1.00  0.00    -0.346 N 
HETATM    4  N2  UNK   900      26.523 -59.522 -37.052  1.00  0.00    -0.346 N 
HETATM    5  C1  UNK   900      28.222 -58.367 -38.345  1.00  0.00     0.180 C 
HETATM    6  C2  UNK   900      26.144 -60.194 -38.286  1.00  0.00     0.180 C 
HETATM    7  C5  UNK   900      27.471 -58.511 -37.029  1.00  0.00     0.241 C 
HETATM    8  C6  UNK   900      27.435 -60.643 -38.959  1.00  0.00     0.241 C 
HETATM    9  H6  UNK   900      29.325 -59.928 -39.325  1.00  0.00     0.163 HD
HETATM   10  H7  UNK   900      25.946 -59.636 -36.225  1.00  0.00     0.163 HD
ENDROOT
BRANCH   6  11
HETATM   11  C4  UNK   900      25.209 -61.362 -38.015  1.00  0.00     0.073 C 
BRANCH  11  12
HETATM   12  C9  UNK   900      23.770 -60.923 -37.942  1.00  0.00    -0.053 A 
HETATM   13  C10 UNK   900      22.823 -61.747 -37.329  1.00  0.00     0.047 A 
HETATM   14  C12 UNK   900      21.517 -61.302 -37.288  1.00  0.00     0.105 A 
HETATM   15  O3  UNK   900      20.465 -61.965 -36.737  1.00  0.00    -0.323 OA
HETATM   16  C13 UNK   900      21.148 -60.091 -37.828  1.00  0.00     0.105 A 
HETATM   17  C15 UNK   900      19.391 -61.036 -36.990  1.00  0.00     0.352 A 
HETATM   18  O4  UNK   900      19.818 -59.845 -37.682  1.00  0.00    -0.323 OA
HETATM   19  C14 UNK   900      22.063 -59.259 -38.439  1.00  0.00     0.040 A 
HETATM   20  C11 UNK   900      23.392 -59.687 -38.494  1.00  0.00     0.010 A 
ENDBRANCH  11  12
ENDBRANCH   6  11
BRANCH   5  21
HETATM   21  C3  UNK   900      29.527 -57.605 -38.175  1.00  0.00     0.009 C 
HETATM   22  C7  UNK   900      29.700 -56.568 -39.286  1.00  0.00     0.012 C 
HETATM   23  C8  UNK   900      30.718 -58.566 -38.155  1.00  0.00     0.012 C 
ENDBRANCH   5  21
TORSDOF 3
ENDMDL
