MODEL 1
REMARK VINA RESULT:      -5.9      0.000      0.000
REMARK  8 active torsions:
REMARK  status: ('A' for Active; 'I' for Inactive)
REMARK    1  A    between atoms: O1_1  and  C5_9 
REMARK    2  A    between atoms: O3_3  and  C10_14 
REMARK    3  A    between atoms: C1_5  and  C2_6 
REMARK    4  A    between atoms: C1_5  and  C3_7 
REMARK    5  A    between atoms: C2_6  and  C4_8 
REMARK    6  A    between atoms: C3_7  and  C5_9 
REMARK    7  A    between atoms: C4_8  and  C6_10 
REMARK    8  A    between atoms: C5_9  and  C7_11 
ROOT
HETATM    1  O2  UNK   900      30.281 -47.477 -60.538  1.00  0.00    -0.277 OA
HETATM    2  O4  UNK   900      30.491 -45.242 -60.895  1.00  0.00    -0.260 OA
HETATM    3  C7  UNK   900      30.128 -48.775 -61.085  1.00  0.00     0.088 A 
HETATM    4  C9  UNK   900      30.053 -48.972 -62.408  1.00  0.00     0.072 A 
HETATM    5  C10 UNK   900      30.131 -47.838 -63.286  1.00  0.00     0.076 A 
HETATM    6  C11 UNK   900      30.358 -46.375 -61.346  1.00  0.00     0.290 A 
HETATM    7  C12 UNK   900      30.275 -46.601 -62.804  1.00  0.00     0.119 A 
ENDROOT
BRANCH   3   8
HETATM    8  C5  UNK   900      30.058 -49.867 -60.069  1.00  0.00     0.175 C 
BRANCH   8   9
HETATM    9  O1  UNK   900      30.074 -49.254 -58.778  1.00  0.00    -0.389 OA
HETATM   10  H16 UNK   900      29.852 -48.315 -58.897  1.00  0.00     0.210 HD
ENDBRANCH   8   9
BRANCH   8  11
HETATM   11  C3  UNK   900      31.223 -50.862 -60.148  1.00  0.00     0.039 C 
BRANCH  11  12
HETATM   12  C1  UNK   900      32.596 -50.214 -59.949  1.00  0.00     0.003 C 
BRANCH  12  13
HETATM   13  C2  UNK   900      33.669 -51.268 -59.659  1.00  0.00     0.000 C 
BRANCH  13  14
HETATM   14  C4  UNK   900      34.866 -51.113 -60.600  1.00  0.00    -0.000 C 
BRANCH  14  15
HETATM   15  C6  UNK   900      36.036 -52.035 -60.249  1.00  0.00    -0.005 C 
HETATM   16  C8  UNK   900      35.613 -53.466 -59.953  1.00  0.00     0.005 C 
ENDBRANCH  14  15
ENDBRANCH  13  14
ENDBRANCH  12  13
ENDBRANCH  11  12
ENDBRANCH   8  11
ENDBRANCH   3   8
BRANCH   5  17
HETATM   17  O3  UNK   900      30.051 -48.076 -64.640  1.00  0.00    -0.356 OA
HETATM   18  C13 UNK   900      29.324 -47.050 -65.290  1.00  0.00     0.210 C 
ENDBRANCH   5  17
TORSDOF 8
ENDMDL
MODEL 2
REMARK VINA RESULT:      -5.3      2.390      5.748
REMARK  8 active torsions:
REMARK  status: ('A' for Active; 'I' for Inactive)
REMARK    1  A    between atoms: O1_1  and  C5_9 
REMARK    2  A    between atoms: O3_3  and  C10_14 
REMARK    3  A    between atoms: C1_5  and  C2_6 
REMARK    4  A    between atoms: C1_5  and  C3_7 
REMARK    5  A    between atoms: C2_6  and  C4_8 
REMARK    6  A    between atoms: C3_7  and  C5_9 
REMARK    7  A    between atoms: C4_8  and  C6_10 
REMARK    8  A    between atoms: C5_9  and  C7_11 
ROOT
HETATM    1  O2  UNK   900      33.733 -48.425 -61.349  1.00  0.00    -0.277 OA
HETATM    2  O4  UNK   900      35.232 -49.591 -62.600  1.00  0.00    -0.260 OA
HETATM    3  C7  UNK   900      32.884 -48.385 -60.216  1.00  0.00     0.088 A 
HETATM    4  C9  UNK   900      32.788 -49.423 -59.376  1.00  0.00     0.072 A 
HETATM    5  C10 UNK   900      33.567 -50.602 -59.635  1.00  0.00     0.076 A 
HETATM    6  C11 UNK   900      34.489 -49.533 -61.625  1.00  0.00     0.290 A 
HETATM    7  C12 UNK   900      34.379 -50.674 -60.693  1.00  0.00     0.119 A 
ENDROOT
BRANCH   3   8
HETATM    8  C5  UNK   900      32.127 -47.106 -60.060  1.00  0.00     0.175 C 
BRANCH   8   9
HETATM    9  O1  UNK   900      32.273 -46.685 -58.703  1.00  0.00    -0.389 OA
HETATM   10  H16 UNK   900      31.445 -46.897 -58.240  1.00  0.00     0.210 HD
ENDBRANCH   8   9
BRANCH   8  11
HETATM   11  C3  UNK   900      30.631 -47.230 -60.373  1.00  0.00     0.039 C 
BRANCH  11  12
HETATM   12  C1  UNK   900      30.168 -46.325 -61.518  1.00  0.00     0.003 C 
BRANCH  12  13
HETATM   13  C2  UNK   900      31.057 -46.497 -62.754  1.00  0.00     0.000 C 
BRANCH  13  14
HETATM   14  C4  UNK   900      30.502 -47.574 -63.689  1.00  0.00    -0.000 C 
BRANCH  14  15
HETATM   15  C6  UNK   900      31.448 -48.763 -63.873  1.00  0.00    -0.005 C 
HETATM   16  C8  UNK   900      31.063 -49.978 -63.043  1.00  0.00     0.005 C 
ENDBRANCH  14  15
ENDBRANCH  13  14
ENDBRANCH  12  13
ENDBRANCH  11  12
ENDBRANCH   8  11
ENDBRANCH   3   8
BRANCH   5  17
HETATM   17  O3  UNK   900      33.446 -51.651 -58.751  1.00  0.00    -0.356 OA
HETATM   18  C13 UNK   900      34.197 -52.768 -59.188  1.00  0.00     0.210 C 
ENDBRANCH   5  17
TORSDOF 8
ENDMDL
MODEL 3
REMARK VINA RESULT:      -5.1      3.330      4.652
REMARK  8 active torsions:
REMARK  status: ('A' for Active; 'I' for Inactive)
REMARK    1  A    between atoms: O1_1  and  C5_9 
REMARK    2  A    between atoms: O3_3  and  C10_14 
REMARK    3  A    between atoms: C1_5  and  C2_6 
REMARK    4  A    between atoms: C1_5  and  C3_7 
REMARK    5  A    between atoms: C2_6  and  C4_8 
REMARK    6  A    between atoms: C3_7  and  C5_9 
REMARK    7  A    between atoms: C4_8  and  C6_10 
REMARK    8  A    between atoms: C5_9  and  C7_11 
ROOT
HETATM    1  O2  UNK   900      29.312 -47.702 -64.810  1.00  0.00    -0.277 OA
HETATM    2  O4  UNK   900      27.680 -46.808 -66.117  1.00  0.00    -0.260 OA
HETATM    3  C7  UNK   900      30.690 -47.784 -64.492  1.00  0.00     0.088 A 
HETATM    4  C9  UNK   900      31.607 -47.080 -65.168  1.00  0.00     0.072 A 
HETATM    5  C10 UNK   900      31.177 -46.223 -66.239  1.00  0.00     0.076 A 
HETATM    6  C11 UNK   900      28.868 -46.896 -65.825  1.00  0.00     0.290 A 
HETATM    7  C12 UNK   900      29.886 -46.122 -66.565  1.00  0.00     0.119 A 
ENDROOT
BRANCH   3   8
HETATM    8  C5  UNK   900      31.006 -48.708 -63.363  1.00  0.00     0.175 C 
BRANCH   8   9
HETATM    9  O1  UNK   900      31.258 -49.998 -63.923  1.00  0.00    -0.389 OA
HETATM   10  H16 UNK   900      30.547 -50.591 -63.627  1.00  0.00     0.210 HD
ENDBRANCH   8   9
BRANCH   8  11
HETATM   11  C3  UNK   900      29.877 -48.837 -62.333  1.00  0.00     0.039 C 
BRANCH  11  12
HETATM   12  C1  UNK   900      30.239 -49.720 -61.135  1.00  0.00     0.003 C 
BRANCH  12  13
HETATM   13  C2  UNK   900      30.289 -48.902 -59.841  1.00  0.00     0.000 C 
BRANCH  13  14
HETATM   14  C4  UNK   900      31.732 -48.587 -59.440  1.00  0.00    -0.000 C 
BRANCH  14  15
HETATM   15  C6  UNK   900      31.999 -47.090 -59.267  1.00  0.00    -0.005 C 
HETATM   16  C8  UNK   900      32.116 -46.338 -60.584  1.00  0.00     0.005 C 
ENDBRANCH  14  15
ENDBRANCH  13  14
ENDBRANCH  12  13
ENDBRANCH  11  12
ENDBRANCH   8  11
ENDBRANCH   3   8
BRANCH   5  17
HETATM   17  O3  UNK   900      32.145 -45.513 -66.913  1.00  0.00    -0.356 OA
HETATM   18  C13 UNK   900      33.440 -45.947 -66.541  1.00  0.00     0.210 C 
ENDBRANCH   5  17
TORSDOF 8
ENDMDL
MODEL 4
REMARK VINA RESULT:      -5.0      3.034      6.578
REMARK  8 active torsions:
REMARK  status: ('A' for Active; 'I' for Inactive)
REMARK    1  A    between atoms: O1_1  and  C5_9 
REMARK    2  A    between atoms: O3_3  and  C10_14 
REMARK    3  A    between atoms: C1_5  and  C2_6 
REMARK    4  A    between atoms: C1_5  and  C3_7 
REMARK    5  A    between atoms: C2_6  and  C4_8 
REMARK    6  A    between atoms: C3_7  and  C5_9 
REMARK    7  A    between atoms: C4_8  and  C6_10 
REMARK    8  A    between atoms: C5_9  and  C7_11 
ROOT
HETATM    1  O2  UNK   900      30.062 -48.765 -60.955  1.00  0.00    -0.277 OA
HETATM    2  O4  UNK   900      30.334 -49.719 -58.909  1.00  0.00    -0.260 OA
HETATM    3  C7  UNK   900      30.379 -47.708 -61.843  1.00  0.00     0.088 A 
HETATM    4  C9  UNK   900      31.210 -46.720 -61.485  1.00  0.00     0.072 A 
HETATM    5  C10 UNK   900      31.788 -46.738 -60.170  1.00  0.00     0.076 A 
HETATM    6  C11 UNK   900      30.595 -48.813 -59.695  1.00  0.00     0.290 A 
HETATM    7  C12 UNK   900      31.510 -47.720 -59.308  1.00  0.00     0.119 A 
ENDROOT
BRANCH   3   8
HETATM    8  C5  UNK   900      29.714 -47.803 -63.176  1.00  0.00     0.175 C 
BRANCH   8   9
HETATM    9  O1  UNK   900      30.526 -48.638 -64.003  1.00  0.00    -0.389 OA
HETATM   10  H16 UNK   900      29.934 -49.123 -64.602  1.00  0.00     0.210 HD
ENDBRANCH   8   9
BRANCH   8  11
HETATM   11  C3  UNK   900      29.536 -46.451 -63.877  1.00  0.00     0.039 C 
BRANCH  11  12
HETATM   12  C1  UNK   900      30.414 -46.286 -65.121  1.00  0.00     0.003 C 
BRANCH  12  13
HETATM   13  C2  UNK   900      29.588 -45.815 -66.323  1.00  0.00     0.000 C 
BRANCH  13  14
HETATM   14  C4  UNK   900      29.629 -46.841 -67.458  1.00  0.00    -0.000 C 
BRANCH  14  15
HETATM   15  C6  UNK   900      30.873 -46.720 -68.340  1.00  0.00    -0.005 C 
HETATM   16  C8  UNK   900      31.313 -45.283 -68.575  1.00  0.00     0.005 C 
ENDBRANCH  14  15
ENDBRANCH  13  14
ENDBRANCH  12  13
ENDBRANCH  11  12
ENDBRANCH   8  11
ENDBRANCH   3   8
BRANCH   5  17
HETATM   17  O3  UNK   900      32.638 -45.708 -59.835  1.00  0.00    -0.356 OA
HETATM   18  C13 UNK   900      33.470 -45.365 -60.927  1.00  0.00     0.210 C 
ENDBRANCH   5  17
TORSDOF 8
ENDMDL
MODEL 5
REMARK VINA RESULT:      -5.0     29.484     30.966
REMARK  8 active torsions:
REMARK  status: ('A' for Active; 'I' for Inactive)
REMARK    1  A    between atoms: O1_1  and  C5_9 
REMARK    2  A    between atoms: O3_3  and  C10_14 
REMARK    3  A    between atoms: C1_5  and  C2_6 
REMARK    4  A    between atoms: C1_5  and  C3_7 
REMARK    5  A    between atoms: C2_6  and  C4_8 
REMARK    6  A    between atoms: C3_7  and  C5_9 
REMARK    7  A    between atoms: C4_8  and  C6_10 
REMARK    8  A    between atoms: C5_9  and  C7_11 
ROOT
HETATM    1  O2  UNK   900      25.335 -20.769 -74.039  1.00  0.00    -0.277 OA
HETATM    2  O4  UNK   900      24.056 -18.898 -74.217  1.00  0.00    -0.260 OA
HETATM    3  C7  UNK   900      25.664 -21.937 -73.309  1.00  0.00     0.088 A 
HETATM    4  C9  UNK   900      25.036 -22.250 -72.168  1.00  0.00     0.072 A 
HETATM    5  C10 UNK   900      24.005 -21.377 -71.680  1.00  0.00     0.076 A 
HETATM    6  C11 UNK   900      24.358 -19.915 -73.601  1.00  0.00     0.290 A 
HETATM    7  C12 UNK   900      23.669 -20.267 -72.343  1.00  0.00     0.119 A 
ENDROOT
BRANCH   3   8
HETATM    8  C5  UNK   900      26.752 -22.758 -73.920  1.00  0.00     0.175 C 
BRANCH   8   9
HETATM    9  O1  UNK   900      27.977 -22.044 -73.748  1.00  0.00    -0.389 OA
HETATM   10  H16 UNK   900      28.662 -22.510 -74.257  1.00  0.00     0.210 HD
ENDBRANCH   8   9
BRANCH   8  11
HETATM   11  C3  UNK   900      26.555 -23.032 -75.416  1.00  0.00     0.039 C 
BRANCH  11  12
HETATM   12  C1  UNK   900      25.911 -24.390 -75.710  1.00  0.00     0.003 C 
BRANCH  12  13
HETATM   13  C2  UNK   900      24.500 -24.221 -76.283  1.00  0.00     0.000 C 
BRANCH  13  14
HETATM   14  C4  UNK   900      23.439 -24.346 -75.188  1.00  0.00    -0.000 C 
BRANCH  14  15
HETATM   15  C6  UNK   900      22.601 -23.079 -75.008  1.00  0.00    -0.005 C 
HETATM   16  C8  UNK   900      22.801 -22.057 -76.117  1.00  0.00     0.005 C 
ENDBRANCH  14  15
ENDBRANCH  13  14
ENDBRANCH  12  13
ENDBRANCH  11  12
ENDBRANCH   8  11
ENDBRANCH   3   8
BRANCH   5  17
HETATM   17  O3  UNK   900      23.377 -21.729 -70.505  1.00  0.00    -0.356 OA
HETATM   18  C13 UNK   900      23.337 -20.634 -69.609  1.00  0.00     0.210 C 
ENDBRANCH   5  17
TORSDOF 8
ENDMDL
MODEL 6
REMARK VINA RESULT:      -4.9      2.959      4.728
REMARK  8 active torsions:
REMARK  status: ('A' for Active; 'I' for Inactive)
REMARK    1  A    between atoms: O1_1  and  C5_9 
REMARK    2  A    between atoms: O3_3  and  C10_14 
REMARK    3  A    between atoms: C1_5  and  C2_6 
REMARK    4  A    between atoms: C1_5  and  C3_7 
REMARK    5  A    between atoms: C2_6  and  C4_8 
REMARK    6  A    between atoms: C3_7  and  C5_9 
REMARK    7  A    between atoms: C4_8  and  C6_10 
REMARK    8  A    between atoms: C5_9  and  C7_11 
ROOT
HETATM    1  O2  UNK   900      34.633 -49.288 -63.283  1.00  0.00    -0.277 OA
HETATM    2  O4  UNK   900      34.740 -48.911 -65.522  1.00  0.00    -0.260 OA
HETATM    3  C7  UNK   900      34.073 -48.941 -62.029  1.00  0.00     0.088 A 
HETATM    4  C9  UNK   900      33.170 -47.958 -61.914  1.00  0.00     0.072 A 
HETATM    5  C10 UNK   900      32.764 -47.245 -63.093  1.00  0.00     0.076 A 
HETATM    6  C11 UNK   900      34.269 -48.628 -64.426  1.00  0.00     0.290 A 
HETATM    7  C12 UNK   900      33.272 -47.546 -64.291  1.00  0.00     0.119 A 
ENDROOT
BRANCH   3   8
HETATM    8  C5  UNK   900      34.577 -49.755 -60.883  1.00  0.00     0.175 C 
BRANCH   8   9
HETATM    9  O1  UNK   900      34.912 -51.048 -61.390  1.00  0.00    -0.389 OA
HETATM   10  H16 UNK   900      34.148 -51.630 -61.237  1.00  0.00     0.210 HD
ENDBRANCH   8   9
BRANCH   8  11
HETATM   11  C3  UNK   900      33.559 -49.926 -59.749  1.00  0.00     0.039 C 
BRANCH  11  12
HETATM   12  C1  UNK   900      32.770 -51.236 -59.827  1.00  0.00     0.003 C 
BRANCH  12  13
HETATM   13  C2  UNK   900      31.410 -51.023 -60.498  1.00  0.00     0.000 C 
BRANCH  13  14
HETATM   14  C4  UNK   900      30.595 -49.951 -59.770  1.00  0.00    -0.000 C 
BRANCH  14  15
HETATM   15  C6  UNK   900      29.832 -49.023 -60.718  1.00  0.00    -0.005 C 
HETATM   16  C8  UNK   900      29.787 -49.525 -62.153  1.00  0.00     0.005 C 
ENDBRANCH  14  15
ENDBRANCH  13  14
ENDBRANCH  12  13
ENDBRANCH  11  12
ENDBRANCH   8  11
ENDBRANCH   3   8
BRANCH   5  17
HETATM   17  O3  UNK   900      31.833 -46.241 -62.940  1.00  0.00    -0.356 OA
HETATM   18  C13 UNK   900      31.697 -45.883 -61.577  1.00  0.00     0.210 C 
ENDBRANCH   5  17
TORSDOF 8
ENDMDL
MODEL 7
REMARK VINA RESULT:      -4.8     30.999     33.407
REMARK  8 active torsions:
REMARK  status: ('A' for Active; 'I' for Inactive)
REMARK    1  A    between atoms: O1_1  and  C5_9 
REMARK    2  A    between atoms: O3_3  and  C10_14 
REMARK    3  A    between atoms: C1_5  and  C2_6 
REMARK    4  A    between atoms: C1_5  and  C3_7 
REMARK    5  A    between atoms: C2_6  and  C4_8 
REMARK    6  A    between atoms: C3_7  and  C5_9 
REMARK    7  A    between atoms: C4_8  and  C6_10 
REMARK    8  A    between atoms: C5_9  and  C7_11 
ROOT
HETATM    1  O2  UNK   900       8.485 -68.164 -50.784  1.00  0.00    -0.277 OA
HETATM    2  O4  UNK   900       9.531 -70.034 -50.024  1.00  0.00    -0.260 OA
HETATM    3  C7  UNK   900       7.732 -67.001 -50.488  1.00  0.00     0.088 A 
HETATM    4  C9  UNK   900       7.379 -66.696 -49.232  1.00  0.00     0.072 A 
HETATM    5  C10 UNK   900       7.776 -67.573 -48.166  1.00  0.00     0.076 A 
HETATM    6  C11 UNK   900       8.879 -69.021 -49.791  1.00  0.00     0.290 A 
HETATM    7  C12 UNK   900       8.486 -68.678 -48.409  1.00  0.00     0.119 A 
ENDROOT
BRANCH   3   8
HETATM    8  C5  UNK   900       7.382 -66.174 -51.681  1.00  0.00     0.175 C 
BRANCH   8   9
HETATM    9  O1  UNK   900       8.447 -65.245 -51.888  1.00  0.00    -0.389 OA
HETATM   10  H16 UNK   900       8.134 -64.576 -52.520  1.00  0.00     0.210 HD
ENDBRANCH   8   9
BRANCH   8  11
HETATM   11  C3  UNK   900       6.074 -65.388 -51.528  1.00  0.00     0.039 C 
BRANCH  11  12
HETATM   12  C1  UNK   900       4.823 -66.212 -51.847  1.00  0.00     0.003 C 
BRANCH  12  13
HETATM   13  C2  UNK   900       3.638 -65.306 -52.194  1.00  0.00     0.000 C 
BRANCH  13  14
HETATM   14  C4  UNK   900       2.417 -65.638 -51.334  1.00  0.00    -0.000 C 
BRANCH  14  15
HETATM   15  C6  UNK   900       2.735 -66.573 -50.165  1.00  0.00    -0.005 C 
HETATM   16  C8  UNK   900       2.221 -66.066 -48.826  1.00  0.00     0.005 C 
ENDBRANCH  14  15
ENDBRANCH  13  14
ENDBRANCH  12  13
ENDBRANCH  11  12
ENDBRANCH   8  11
ENDBRANCH   3   8
BRANCH   5  17
HETATM   17  O3  UNK   900       7.398 -67.231 -46.887  1.00  0.00    -0.356 OA
HETATM   18  C13 UNK   900       7.337 -68.375 -46.055  1.00  0.00     0.210 C 
ENDBRANCH   5  17
TORSDOF 8
ENDMDL
MODEL 8
REMARK VINA RESULT:      -4.6     22.370     23.804
REMARK  8 active torsions:
REMARK  status: ('A' for Active; 'I' for Inactive)
REMARK    1  A    between atoms: O1_1  and  C5_9 
REMARK    2  A    between atoms: O3_3  and  C10_14 
REMARK    3  A    between atoms: C1_5  and  C2_6 
REMARK    4  A    between atoms: C1_5  and  C3_7 
REMARK    5  A    between atoms: C2_6  and  C4_8 
REMARK    6  A    between atoms: C3_7  and  C5_9 
REMARK    7  A    between atoms: C4_8  and  C6_10 
REMARK    8  A    between atoms: C5_9  and  C7_11 
ROOT
HETATM    1  O2  UNK   900      18.105 -65.831 -64.110  1.00  0.00    -0.277 OA
HETATM    2  O4  UNK   900      20.262 -65.505 -63.470  1.00  0.00    -0.260 OA
HETATM    3  C7  UNK   900      17.165 -65.937 -65.164  1.00  0.00     0.088 A 
HETATM    4  C9  UNK   900      17.534 -65.817 -66.446  1.00  0.00     0.072 A 
HETATM    5  C10 UNK   900      18.916 -65.575 -66.752  1.00  0.00     0.076 A 
HETATM    6  C11 UNK   900      19.430 -65.600 -64.366  1.00  0.00     0.290 A 
HETATM    7  C12 UNK   900      19.830 -65.470 -65.782  1.00  0.00     0.119 A 
ENDROOT
BRANCH   3   8
HETATM    8  C5  UNK   900      15.762 -66.187 -64.715  1.00  0.00     0.175 C 
BRANCH   8   9
HETATM    9  O1  UNK   900      15.517 -65.347 -63.586  1.00  0.00    -0.389 OA
HETATM   10  H16 UNK   900      15.936 -64.488 -63.763  1.00  0.00     0.210 HD
ENDBRANCH   8   9
BRANCH   8  11
HETATM   11  C3  UNK   900      15.493 -67.641 -64.306  1.00  0.00     0.039 C 
BRANCH  11  12
HETATM   12  C1  UNK   900      14.136 -67.844 -63.626  1.00  0.00     0.003 C 
BRANCH  12  13
HETATM   13  C2  UNK   900      14.145 -69.089 -62.733  1.00  0.00     0.000 C 
BRANCH  13  14
HETATM   14  C4  UNK   900      12.879 -69.167 -61.878  1.00  0.00    -0.000 C 
BRANCH  14  15
HETATM   15  C6  UNK   900      12.118 -67.841 -61.800  1.00  0.00    -0.005 C 
HETATM   16  C8  UNK   900      10.622 -67.986 -62.029  1.00  0.00     0.005 C 
ENDBRANCH  14  15
ENDBRANCH  13  14
ENDBRANCH  12  13
ENDBRANCH  11  12
ENDBRANCH   8  11
ENDBRANCH   3   8
BRANCH   5  17
HETATM   17  O3  UNK   900      19.263 -65.458 -68.079  1.00  0.00    -0.356 OA
HETATM   18  C13 UNK   900      20.586 -65.909 -68.297  1.00  0.00     0.210 C 
ENDBRANCH   5  17
TORSDOF 8
ENDMDL
MODEL 9
REMARK VINA RESULT:      -4.4     29.157     33.652
REMARK  8 active torsions:
REMARK  status: ('A' for Active; 'I' for Inactive)
REMARK    1  A    between atoms: O1_1  and  C5_9 
REMARK    2  A    between atoms: O3_3  and  C10_14 
REMARK    3  A    between atoms: C1_5  and  C2_6 
REMARK    4  A    between atoms: C1_5  and  C3_7 
REMARK    5  A    between atoms: C2_6  and  C4_8 
REMARK    6  A    between atoms: C3_7  and  C5_9 
REMARK    7  A    between atoms: C4_8  and  C6_10 
REMARK    8  A    between atoms: C5_9  and  C7_11 
ROOT
HETATM    1  O2  UNK   900       9.683 -29.399 -76.242  1.00  0.00    -0.277 OA
HETATM    2  O4  UNK   900       8.073 -30.277 -74.898  1.00  0.00    -0.260 OA
HETATM    3  C7  UNK   900      11.041 -29.036 -76.415  1.00  0.00     0.088 A 
HETATM    4  C9  UNK   900      11.944 -29.222 -75.444  1.00  0.00     0.072 A 
HETATM    5  C10 UNK   900      11.520 -29.804 -74.201  1.00  0.00     0.076 A 
HETATM    6  C11 UNK   900       9.244 -29.955 -75.070  1.00  0.00     0.290 A 
HETATM    7  C12 UNK   900      10.246 -30.158 -74.004  1.00  0.00     0.119 A 
ENDROOT
BRANCH   3   8
HETATM    8  C5  UNK   900      11.354 -28.441 -77.749  1.00  0.00     0.175 C 
BRANCH   8   9
HETATM    9  O1  UNK   900      11.464 -27.028 -77.573  1.00  0.00    -0.389 OA
HETATM   10  H16 UNK   900      12.200 -26.865 -76.960  1.00  0.00     0.210 HD
ENDBRANCH   8   9
BRANCH   8  11
HETATM   11  C3  UNK   900      10.287 -28.717 -78.816  1.00  0.00     0.039 C 
BRANCH  11  12
HETATM   12  C1  UNK   900      10.274 -27.687 -79.949  1.00  0.00     0.003 C 
BRANCH  12  13
HETATM   13  C2  UNK   900      10.551 -28.350 -81.302  1.00  0.00     0.000 C 
BRANCH  13  14
HETATM   14  C4  UNK   900      11.269 -27.389 -82.252  1.00  0.00    -0.000 C 
BRANCH  14  15
HETATM   15  C6  UNK   900      11.897 -26.189 -81.540  1.00  0.00    -0.005 C 
HETATM   16  C8  UNK   900      12.418 -25.123 -82.492  1.00  0.00     0.005 C 
ENDBRANCH  14  15
ENDBRANCH  13  14
ENDBRANCH  12  13
ENDBRANCH  11  12
ENDBRANCH   8  11
ENDBRANCH   3   8
BRANCH   5  17
HETATM   17  O3  UNK   900      12.473 -29.982 -73.223  1.00  0.00    -0.356 OA
HETATM   18  C13 UNK   900      12.533 -31.337 -72.818  1.00  0.00     0.210 C 
ENDBRANCH   5  17
TORSDOF 8
ENDMDL
