MODEL 1
REMARK VINA RESULT:      -7.2      0.000      0.000
REMARK  3 active torsions:
REMARK  status: ('A' for Active; 'I' for Inactive)
REMARK    1  A    between atoms: O1_1  and  C4_8 
REMARK    2  A    between atoms: C1_5  and  C3_7 
REMARK    3  A    between atoms: C3_7  and  C7_11 
ROOT
HETATM    1  C3  UNK   900      32.546 -49.599 -59.913  1.00  0.00     0.055 C 
ENDROOT
BRANCH   1   2
HETATM    2  C1  UNK   900      31.647 -49.721 -61.142  1.00  0.00     0.084 C 
HETATM    3  C2  UNK   900      32.056 -48.700 -62.205  1.00  0.00     0.047 C 
HETATM    4  C4  UNK   900      31.108 -48.752 -63.397  1.00  0.00     0.136 C 
HETATM    5  C5  UNK   900      29.689 -48.458 -62.941  1.00  0.00     0.154 C 
HETATM    6  N1  UNK   900      29.312 -49.151 -61.720  1.00  0.00    -0.358 N 
HETATM    7  C6  UNK   900      30.175 -49.614 -60.751  1.00  0.00     0.222 C 
HETATM    8  H9  UNK   900      28.326 -49.138 -61.480  1.00  0.00     0.162 HD
HETATM    9  O2  UNK   900      29.766 -50.011 -59.658  1.00  0.00    -0.273 OA
BRANCH   4  10
HETATM   10  O1  UNK   900      31.142 -50.035 -64.013  1.00  0.00    -0.394 OA
HETATM   11  H12 UNK   900      30.553 -50.621 -63.507  1.00  0.00     0.210 HD
ENDBRANCH   4  10
ENDBRANCH   1   2
BRANCH   1  12
HETATM   12  C7  UNK   900      33.683 -50.583 -59.959  1.00  0.00    -0.029 A 
HETATM   13  C8  UNK   900      33.629 -51.957 -59.597  1.00  0.00    -0.002 A 
HETATM   14  C10 UNK   900      34.907 -52.484 -59.797  1.00  0.00     0.042 A 
HETATM   15  C11 UNK   900      32.613 -52.807 -59.118  1.00  0.00     0.014 A 
HETATM   16  N2  UNK   900      35.700 -51.459 -60.262  1.00  0.00    -0.365 N 
HETATM   17  C12 UNK   900      35.221 -53.823 -59.539  1.00  0.00     0.030 A 
HETATM   18  C9  UNK   900      34.968 -50.305 -60.364  1.00  0.00     0.096 A 
HETATM   19  H11 UNK   900      36.679 -51.545 -60.494  1.00  0.00     0.165 HD
HETATM   20  C14 UNK   900      34.197 -54.648 -59.064  1.00  0.00     0.002 A 
HETATM   21  C13 UNK   900      32.912 -54.150 -58.856  1.00  0.00     0.001 A 
ENDBRANCH   1  12
TORSDOF 3
ENDMDL
MODEL 2
REMARK VINA RESULT:      -6.7      1.214      2.254
REMARK  3 active torsions:
REMARK  status: ('A' for Active; 'I' for Inactive)
REMARK    1  A    between atoms: O1_1  and  C4_8 
REMARK    2  A    between atoms: C1_5  and  C3_7 
REMARK    3  A    between atoms: C3_7  and  C7_11 
ROOT
HETATM    1  C3  UNK   900      31.509 -50.262 -59.781  1.00  0.00     0.055 C 
ENDROOT
BRANCH   1   2
HETATM    2  C1  UNK   900      31.059 -50.115 -61.234  1.00  0.00     0.084 C 
HETATM    3  C2  UNK   900      31.880 -49.033 -61.940  1.00  0.00     0.047 C 
HETATM    4  C4  UNK   900      31.378 -48.816 -63.361  1.00  0.00     0.136 C 
HETATM    5  C5  UNK   900      29.918 -48.398 -63.335  1.00  0.00     0.154 C 
HETATM    6  N1  UNK   900      29.102 -49.179 -62.420  1.00  0.00    -0.358 N 
HETATM    7  C6  UNK   900      29.555 -49.866 -61.314  1.00  0.00     0.222 C 
HETATM    8  H9  UNK   900      28.097 -49.067 -62.504  1.00  0.00     0.162 HD
HETATM    9  O2  UNK   900      28.776 -50.336 -60.482  1.00  0.00    -0.273 OA
BRANCH   4  10
HETATM   10  O1  UNK   900      31.506 -50.008 -64.129  1.00  0.00    -0.394 OA
HETATM   11  H12 UNK   900      31.771 -50.721 -63.524  1.00  0.00     0.210 HD
ENDBRANCH   4  10
ENDBRANCH   1   2
BRANCH   1  12
HETATM   12  C7  UNK   900      32.566 -51.321 -59.634  1.00  0.00    -0.029 A 
HETATM   13  C8  UNK   900      33.944 -51.194 -59.964  1.00  0.00    -0.002 A 
HETATM   14  C10 UNK   900      34.551 -52.416 -59.666  1.00  0.00     0.042 A 
HETATM   15  C11 UNK   900      34.736 -50.154 -60.487  1.00  0.00     0.014 A 
HETATM   16  N2  UNK   900      33.569 -53.248 -59.175  1.00  0.00    -0.365 N 
HETATM   17  C12 UNK   900      35.916 -52.651 -59.867  1.00  0.00     0.030 A 
HETATM   18  C9  UNK   900      32.366 -52.594 -59.151  1.00  0.00     0.096 A 
HETATM   19  H11 UNK   900      33.716 -54.201 -58.875  1.00  0.00     0.165 HD
HETATM   20  C14 UNK   900      36.682 -51.604 -60.388  1.00  0.00     0.002 A 
HETATM   21  C13 UNK   900      36.103 -50.374 -60.694  1.00  0.00     0.001 A 
ENDBRANCH   1  12
TORSDOF 3
ENDMDL
MODEL 3
REMARK VINA RESULT:      -6.5      3.893      8.114
REMARK  3 active torsions:
REMARK  status: ('A' for Active; 'I' for Inactive)
REMARK    1  A    between atoms: O1_1  and  C4_8 
REMARK    2  A    between atoms: C1_5  and  C3_7 
REMARK    3  A    between atoms: C3_7  and  C7_11 
ROOT
HETATM    1  C3  UNK   900      29.448 -46.388 -63.958  1.00  0.00     0.055 C 
ENDROOT
BRANCH   1   2
HETATM    2  C1  UNK   900      30.450 -47.395 -63.396  1.00  0.00     0.084 C 
HETATM    3  C2  UNK   900      29.732 -48.670 -62.948  1.00  0.00     0.047 C 
HETATM    4  C4  UNK   900      30.710 -49.642 -62.302  1.00  0.00     0.136 C 
HETATM    5  C5  UNK   900      31.368 -48.991 -61.099  1.00  0.00     0.154 C 
HETATM    6  N1  UNK   900      31.801 -47.623 -61.338  1.00  0.00    -0.358 N 
HETATM    7  C6  UNK   900      31.289 -46.765 -62.286  1.00  0.00     0.222 C 
HETATM    8  H9  UNK   900      32.409 -47.213 -60.636  1.00  0.00     0.162 HD
HETATM    9  O2  UNK   900      31.572 -45.565 -62.292  1.00  0.00    -0.273 OA
BRANCH   4  10
HETATM   10  O1  UNK   900      31.719 -50.033 -63.229  1.00  0.00    -0.394 OA
HETATM   11  H12 UNK   900      31.521 -49.603 -64.078  1.00  0.00     0.210 HD
ENDBRANCH   4  10
ENDBRANCH   1   2
BRANCH   1  12
HETATM   12  C7  UNK   900      29.074 -46.714 -65.378  1.00  0.00    -0.029 A 
HETATM   13  C8  UNK   900      29.940 -46.699 -66.506  1.00  0.00    -0.002 A 
HETATM   14  C10 UNK   900      29.175 -47.066 -67.615  1.00  0.00     0.042 A 
HETATM   15  C11 UNK   900      31.307 -46.411 -66.692  1.00  0.00     0.014 A 
HETATM   16  N2  UNK   900      27.892 -47.291 -67.166  1.00  0.00    -0.365 N 
HETATM   17  C12 UNK   900      29.708 -47.156 -68.906  1.00  0.00     0.030 A 
HETATM   18  C9  UNK   900      27.822 -47.081 -65.815  1.00  0.00     0.096 A 
HETATM   19  H11 UNK   900      27.117 -47.570 -67.750  1.00  0.00     0.165 HD
HETATM   20  C14 UNK   900      31.067 -46.865 -69.065  1.00  0.00     0.002 A 
HETATM   21  C13 UNK   900      31.855 -46.498 -67.977  1.00  0.00     0.001 A 
ENDBRANCH   1  12
TORSDOF 3
ENDMDL
MODEL 4
REMARK VINA RESULT:      -6.4      4.028      5.716
REMARK  3 active torsions:
REMARK  status: ('A' for Active; 'I' for Inactive)
REMARK    1  A    between atoms: O1_1  and  C4_8 
REMARK    2  A    between atoms: C1_5  and  C3_7 
REMARK    3  A    between atoms: C3_7  and  C7_11 
ROOT
HETATM    1  C3  UNK   900      31.103 -45.961 -63.800  1.00  0.00     0.055 C 
ENDROOT
BRANCH   1   2
HETATM    2  C1  UNK   900      30.137 -45.885 -64.982  1.00  0.00     0.084 C 
HETATM    3  C2  UNK   900      29.139 -47.044 -64.931  1.00  0.00     0.047 C 
HETATM    4  C4  UNK   900      28.232 -47.029 -66.154  1.00  0.00     0.136 C 
HETATM    5  C5  UNK   900      29.066 -47.144 -67.418  1.00  0.00     0.154 C 
HETATM    6  N1  UNK   900      30.248 -46.298 -67.417  1.00  0.00    -0.358 N 
HETATM    7  C6  UNK   900      30.901 -45.817 -66.303  1.00  0.00     0.222 C 
HETATM    8  H9  UNK   900      30.730 -46.196 -68.305  1.00  0.00     0.162 HD
HETATM    9  O2  UNK   900      32.004 -45.274 -66.385  1.00  0.00    -0.273 OA
BRANCH   4  10
HETATM   10  O1  UNK   900      27.474 -45.824 -66.205  1.00  0.00    -0.394 OA
HETATM   11  H12 UNK   900      27.919 -45.222 -66.825  1.00  0.00     0.210 HD
ENDBRANCH   4  10
ENDBRANCH   1   2
BRANCH   1  12
HETATM   12  C7  UNK   900      31.527 -47.377 -63.523  1.00  0.00    -0.029 A 
HETATM   13  C8  UNK   900      31.096 -48.195 -62.441  1.00  0.00    -0.002 A 
HETATM   14  C10 UNK   900      31.741 -49.426 -62.577  1.00  0.00     0.042 A 
HETATM   15  C11 UNK   900      30.216 -48.005 -61.358  1.00  0.00     0.014 A 
HETATM   16  N2  UNK   900      32.532 -49.349 -63.701  1.00  0.00    -0.365 N 
HETATM   17  C12 UNK   900      31.549 -50.482 -61.678  1.00  0.00     0.030 A 
HETATM   18  C9  UNK   900      32.409 -48.114 -64.280  1.00  0.00     0.096 A 
HETATM   19  H11 UNK   900      33.118 -50.095 -64.048  1.00  0.00     0.165 HD
HETATM   20  C14 UNK   900      30.671 -50.270 -60.610  1.00  0.00     0.002 A 
HETATM   21  C13 UNK   900      30.014 -49.052 -60.451  1.00  0.00     0.001 A 
ENDBRANCH   1  12
TORSDOF 3
ENDMDL
MODEL 5
REMARK VINA RESULT:      -5.9     31.756     32.962
REMARK  3 active torsions:
REMARK  status: ('A' for Active; 'I' for Inactive)
REMARK    1  A    between atoms: O1_1  and  C4_8 
REMARK    2  A    between atoms: C1_5  and  C3_7 
REMARK    3  A    between atoms: C3_7  and  C7_11 
ROOT
HETATM    1  C3  UNK   900      27.344 -22.197 -73.493  1.00  0.00     0.055 C 
ENDROOT
BRANCH   1   2
HETATM    2  C1  UNK   900      27.501 -20.717 -73.145  1.00  0.00     0.084 C 
HETATM    3  C2  UNK   900      26.925 -19.843 -74.261  1.00  0.00     0.047 C 
HETATM    4  C4  UNK   900      27.159 -18.367 -73.966  1.00  0.00     0.136 C 
HETATM    5  C5  UNK   900      28.647 -18.096 -73.837  1.00  0.00     0.154 C 
HETATM    6  N1  UNK   900      29.356 -19.086 -73.043  1.00  0.00    -0.358 N 
HETATM    7  C6  UNK   900      28.956 -20.387 -72.823  1.00  0.00     0.222 C 
HETATM    8  H9  UNK   900      30.305 -18.851 -72.771  1.00  0.00     0.162 HD
HETATM    9  O2  UNK   900      29.708 -21.215 -72.306  1.00  0.00    -0.273 OA
BRANCH   4  10
HETATM   10  O1  UNK   900      26.510 -17.985 -72.757  1.00  0.00    -0.394 OA
HETATM   11  H12 UNK   900      25.975 -17.196 -72.946  1.00  0.00     0.210 HD
ENDBRANCH   4  10
ENDBRANCH   1   2
BRANCH   1  12
HETATM   12  C7  UNK   900      25.912 -22.643 -73.377  1.00  0.00    -0.029 A 
HETATM   13  C8  UNK   900      25.176 -23.386 -74.341  1.00  0.00    -0.002 A 
HETATM   14  C10 UNK   900      23.895 -23.578 -73.820  1.00  0.00     0.042 A 
HETATM   15  C11 UNK   900      25.478 -23.917 -75.610  1.00  0.00     0.014 A 
HETATM   16  N2  UNK   900      23.864 -22.969 -72.585  1.00  0.00    -0.365 N 
HETATM   17  C12 UNK   900      22.896 -24.275 -74.508  1.00  0.00     0.030 A 
HETATM   18  C9  UNK   900      25.080 -22.401 -72.309  1.00  0.00     0.096 A 
HETATM   19  H11 UNK   900      23.061 -22.944 -71.973  1.00  0.00     0.165 HD
HETATM   20  C14 UNK   900      23.218 -24.793 -75.766  1.00  0.00     0.002 A 
HETATM   21  C13 UNK   900      24.489 -24.618 -76.311  1.00  0.00     0.001 A 
ENDBRANCH   1  12
TORSDOF 3
ENDMDL
MODEL 6
REMARK VINA RESULT:      -5.9     27.883     28.865
REMARK  3 active torsions:
REMARK  status: ('A' for Active; 'I' for Inactive)
REMARK    1  A    between atoms: O1_1  and  C4_8 
REMARK    2  A    between atoms: C1_5  and  C3_7 
REMARK    3  A    between atoms: C3_7  and  C7_11 
ROOT
HETATM    1  C3  UNK   900       4.268 -42.573 -62.944  1.00  0.00     0.055 C 
ENDROOT
BRANCH   1   2
HETATM    2  C1  UNK   900       5.591 -41.819 -63.074  1.00  0.00     0.084 C 
HETATM    3  C2  UNK   900       5.594 -40.587 -62.166  1.00  0.00     0.047 C 
HETATM    4  C4  UNK   900       6.870 -39.778 -62.357  1.00  0.00     0.136 C 
HETATM    5  C5  UNK   900       6.988 -39.333 -63.803  1.00  0.00     0.154 C 
HETATM    6  N1  UNK   900       6.674 -40.377 -64.765  1.00  0.00    -0.358 N 
HETATM    7  C6  UNK   900       5.882 -41.480 -64.534  1.00  0.00     0.222 C 
HETATM    8  H9  UNK   900       6.919 -40.188 -65.732  1.00  0.00     0.162 HD
HETATM    9  O2  UNK   900       5.506 -42.210 -65.454  1.00  0.00    -0.273 OA
BRANCH   4  10
HETATM   10  O1  UNK   900       8.014 -40.554 -62.015  1.00  0.00    -0.394 OA
HETATM   11  H12 UNK   900       7.743 -41.488 -61.997  1.00  0.00     0.210 HD
ENDBRANCH   4  10
ENDBRANCH   1   2
BRANCH   1  12
HETATM   12  C7  UNK   900       4.474 -43.961 -62.403  1.00  0.00    -0.029 A 
HETATM   13  C8  UNK   900       3.795 -44.550 -61.300  1.00  0.00    -0.002 A 
HETATM   14  C10 UNK   900       4.299 -45.844 -61.152  1.00  0.00     0.042 A 
HETATM   15  C11 UNK   900       2.796 -44.105 -60.412  1.00  0.00     0.014 A 
HETATM   16  N2  UNK   900       5.249 -46.024 -62.132  1.00  0.00    -0.365 N 
HETATM   17  C12 UNK   900       3.853 -46.719 -60.155  1.00  0.00     0.030 A 
HETATM   18  C9  UNK   900       5.362 -44.891 -62.894  1.00  0.00     0.096 A 
HETATM   19  H11 UNK   900       5.785 -46.869 -62.269  1.00  0.00     0.165 HD
HETATM   20  C14 UNK   900       2.861 -46.256 -59.285  1.00  0.00     0.002 A 
HETATM   21  C13 UNK   900       2.339 -44.970 -59.410  1.00  0.00     0.001 A 
ENDBRANCH   1  12
TORSDOF 3
ENDMDL
MODEL 7
REMARK VINA RESULT:      -5.8     23.137     25.179
REMARK  3 active torsions:
REMARK  status: ('A' for Active; 'I' for Inactive)
REMARK    1  A    between atoms: O1_1  and  C4_8 
REMARK    2  A    between atoms: C1_5  and  C3_7 
REMARK    3  A    between atoms: C3_7  and  C7_11 
ROOT
HETATM    1  C3  UNK   900      25.075 -58.895 -36.647  1.00  0.00     0.055 C 
ENDROOT
BRANCH   1   2
HETATM    2  C1  UNK   900      24.254 -59.468 -37.802  1.00  0.00     0.084 C 
HETATM    3  C2  UNK   900      22.766 -59.178 -37.594  1.00  0.00     0.047 C 
HETATM    4  C4  UNK   900      21.932 -59.825 -38.693  1.00  0.00     0.136 C 
HETATM    5  C5  UNK   900      22.154 -61.327 -38.693  1.00  0.00     0.154 C 
HETATM    6  N1  UNK   900      23.549 -61.713 -38.559  1.00  0.00    -0.358 N 
HETATM    7  C6  UNK   900      24.549 -60.954 -37.992  1.00  0.00     0.222 C 
HETATM    8  H9  UNK   900      23.767 -62.687 -38.743  1.00  0.00     0.162 HD
HETATM    9  O2  UNK   900      25.658 -61.430 -37.739  1.00  0.00    -0.273 OA
BRANCH   4  10
HETATM   10  O1  UNK   900      22.287 -59.302 -39.969  1.00  0.00    -0.394 OA
HETATM   11  H12 UNK   900      23.059 -58.723 -39.846  1.00  0.00     0.210 HD
ENDBRANCH   4  10
ENDBRANCH   1   2
BRANCH   1  12
HETATM   12  C7  UNK   900      25.913 -57.727 -37.090  1.00  0.00    -0.029 A 
HETATM   13  C8  UNK   900      27.091 -57.784 -37.886  1.00  0.00    -0.002 A 
HETATM   14  C10 UNK   900      27.537 -56.471 -38.051  1.00  0.00     0.042 A 
HETATM   15  C11 UNK   900      27.822 -58.829 -38.484  1.00  0.00     0.014 A 
HETATM   16  N2  UNK   900      26.657 -55.655 -37.376  1.00  0.00    -0.365 N 
HETATM   17  C12 UNK   900      28.683 -56.149 -38.788  1.00  0.00     0.030 A 
HETATM   18  C9  UNK   900      25.671 -56.406 -36.792  1.00  0.00     0.096 A 
HETATM   19  H11 UNK   900      26.728 -54.649 -37.321  1.00  0.00     0.165 HD
HETATM   20  C14 UNK   900      29.392 -57.203 -39.372  1.00  0.00     0.002 A 
HETATM   21  C13 UNK   900      28.970 -58.523 -39.224  1.00  0.00     0.001 A 
ENDBRANCH   1  12
TORSDOF 3
ENDMDL
MODEL 8
REMARK VINA RESULT:      -5.8      3.546      7.385
REMARK  3 active torsions:
REMARK  status: ('A' for Active; 'I' for Inactive)
REMARK    1  A    between atoms: O1_1  and  C4_8 
REMARK    2  A    between atoms: C1_5  and  C3_7 
REMARK    3  A    between atoms: C3_7  and  C7_11 
ROOT
HETATM    1  C3  UNK   900      31.638 -46.028 -63.026  1.00  0.00     0.055 C 
ENDROOT
BRANCH   1   2
HETATM    2  C1  UNK   900      32.373 -47.180 -62.343  1.00  0.00     0.084 C 
HETATM    3  C2  UNK   900      31.439 -48.379 -62.166  1.00  0.00     0.047 C 
HETATM    4  C4  UNK   900      32.136 -49.499 -61.405  1.00  0.00     0.136 C 
HETATM    5  C5  UNK   900      32.574 -49.001 -60.039  1.00  0.00     0.154 C 
HETATM    6  N1  UNK   900      33.194 -47.686 -60.067  1.00  0.00    -0.358 N 
HETATM    7  C6  UNK   900      33.004 -46.720 -61.031  1.00  0.00     0.222 C 
HETATM    8  H9  UNK   900      33.669 -47.394 -59.219  1.00  0.00     0.162 HD
HETATM    9  O2  UNK   900      33.409 -45.566 -60.878  1.00  0.00    -0.273 OA
BRANCH   4  10
HETATM   10  O1  UNK   900      33.278 -49.960 -62.119  1.00  0.00    -0.394 OA
HETATM   11  H12 UNK   900      33.484 -50.855 -61.801  1.00  0.00     0.210 HD
ENDBRANCH   4  10
ENDBRANCH   1   2
BRANCH   1  12
HETATM   12  C7  UNK   900      31.484 -46.267 -64.503  1.00  0.00    -0.029 A 
HETATM   13  C8  UNK   900      30.272 -46.537 -65.196  1.00  0.00    -0.002 A 
HETATM   14  C10 UNK   900      30.597 -46.690 -66.545  1.00  0.00     0.042 A 
HETATM   15  C11 UNK   900      28.925 -46.664 -64.804  1.00  0.00     0.014 A 
HETATM   16  N2  UNK   900      31.959 -46.519 -66.657  1.00  0.00    -0.365 N 
HETATM   17  C12 UNK   900      29.638 -46.967 -67.527  1.00  0.00     0.030 A 
HETATM   18  C9  UNK   900      32.504 -46.263 -65.427  1.00  0.00     0.096 A 
HETATM   19  H11 UNK   900      32.479 -46.575 -67.520  1.00  0.00     0.165 HD
HETATM   20  C14 UNK   900      28.308 -47.089 -67.114  1.00  0.00     0.002 A 
HETATM   21  C13 UNK   900      27.954 -46.940 -65.774  1.00  0.00     0.001 A 
ENDBRANCH   1  12
TORSDOF 3
ENDMDL
MODEL 9
REMARK VINA RESULT:      -5.7     16.453     18.486
REMARK  3 active torsions:
REMARK  status: ('A' for Active; 'I' for Inactive)
REMARK    1  A    between atoms: O1_1  and  C4_8 
REMARK    2  A    between atoms: C1_5  and  C3_7 
REMARK    3  A    between atoms: C3_7  and  C7_11 
ROOT
HETATM    1  C3  UNK   900      37.013 -34.232 -58.929  1.00  0.00     0.055 C 
ENDROOT
BRANCH   1   2
HETATM    2  C1  UNK   900      35.681 -34.980 -58.944  1.00  0.00     0.084 C 
HETATM    3  C2  UNK   900      34.847 -34.609 -57.716  1.00  0.00     0.047 C 
HETATM    4  C4  UNK   900      33.557 -35.418 -57.674  1.00  0.00     0.136 C 
HETATM    5  C5  UNK   900      33.879 -36.901 -57.631  1.00  0.00     0.154 C 
HETATM    6  N1  UNK   900      34.923 -37.301 -58.560  1.00  0.00    -0.358 N 
HETATM    7  C6  UNK   900      35.904 -36.485 -59.078  1.00  0.00     0.222 C 
HETATM    8  H9  UNK   900      35.041 -38.299 -58.704  1.00  0.00     0.162 HD
HETATM    9  O2  UNK   900      36.864 -36.943 -59.700  1.00  0.00    -0.273 OA
BRANCH   4  10
HETATM   10  O1  UNK   900      32.757 -35.150 -58.821  1.00  0.00    -0.394 OA
HETATM   11  H12 UNK   900      31.897 -35.584 -58.689  1.00  0.00     0.210 HD
ENDBRANCH   4  10
ENDBRANCH   1   2
BRANCH   1  12
HETATM   12  C7  UNK   900      37.079 -33.198 -60.019  1.00  0.00    -0.029 A 
HETATM   13  C8  UNK   900      36.625 -31.853 -59.939  1.00  0.00    -0.002 A 
HETATM   14  C10 UNK   900      36.884 -31.258 -61.175  1.00  0.00     0.042 A 
HETATM   15  C11 UNK   900      36.016 -31.081 -58.930  1.00  0.00     0.014 A 
HETATM   16  N2  UNK   900      37.473 -32.216 -61.970  1.00  0.00    -0.365 N 
HETATM   17  C12 UNK   900      36.563 -29.925 -61.455  1.00  0.00     0.030 A 
HETATM   18  C9  UNK   900      37.596 -33.392 -61.280  1.00  0.00     0.096 A 
HETATM   19  H11 UNK   900      37.772 -32.071 -62.924  1.00  0.00     0.165 HD
HETATM   20  C14 UNK   900      35.960 -29.178 -60.438  1.00  0.00     0.002 A 
HETATM   21  C13 UNK   900      35.690 -29.745 -59.194  1.00  0.00     0.001 A 
ENDBRANCH   1  12
TORSDOF 3
ENDMDL
