MODEL 1
REMARK VINA RESULT:      -7.0      0.000      0.000
REMARK  2 active torsions:
REMARK  status: ('A' for Active; 'I' for Inactive)
REMARK    1  A    between atoms: O2_2  and  C5_8 
REMARK    2  A    between atoms: O3_3  and  C6_9 
ROOT
HETATM    1  O1  UNK   900      33.027 -47.305 -62.354  1.00  0.00    -0.366 OA
HETATM    2  C1  UNK   900      31.019 -48.527 -61.931  1.00  0.00     0.029 C 
HETATM    3  C2  UNK   900      31.219 -48.481 -60.424  1.00  0.00     0.058 C 
HETATM    4  C3  UNK   900      31.616 -47.310 -62.653  1.00  0.00     0.062 C 
HETATM    5  C4  UNK   900      33.326 -47.099 -60.958  1.00  0.00     0.088 C 
HETATM    6  C5  UNK   900      32.692 -48.250 -60.100  1.00  0.00     0.160 C 
HETATM    7  C6  UNK   900      30.499 -49.755 -59.939  1.00  0.00     0.061 C 
HETATM    8  C7  UNK   900      29.531 -48.832 -62.032  1.00  0.00     0.011 C 
HETATM    9  C8  UNK   900      32.875 -45.653 -60.567  1.00  0.00     0.018 C 
HETATM   10  C9  UNK   900      29.293 -49.866 -60.912  1.00  0.00     0.038 C 
HETATM   11  C10 UNK   900      31.022 -45.930 -62.309  1.00  0.00     0.038 C 
HETATM   12  C11 UNK   900      31.408 -45.375 -60.939  1.00  0.00     0.010 C 
HETATM   13  C12 UNK   900      31.501 -47.523 -64.171  1.00  0.00     0.046 C 
HETATM   14  C13 UNK   900      34.858 -47.241 -60.834  1.00  0.00     0.049 C 
HETATM   15  C14 UNK   900      31.346 -51.028 -59.944  1.00  0.00     0.046 C 
HETATM   16  C15 UNK   900      33.741 -44.560 -61.227  1.00  0.00     0.013 C 
ENDROOT
BRANCH   7  17
HETATM   17  O3  UNK   900      30.031 -49.547 -58.609  1.00  0.00    -0.390 OA
HETATM   18  H26 UNK   900      29.206 -50.052 -58.501  1.00  0.00     0.210 HD
ENDBRANCH   7  17
BRANCH   6  19
HETATM   19  O2  UNK   900      32.856 -47.980 -58.714  1.00  0.00    -0.392 OA
HETATM   20  H25 UNK   900      33.477 -48.637 -58.356  1.00  0.00     0.210 HD
ENDBRANCH   6  19
TORSDOF 2
ENDMDL
MODEL 2
REMARK VINA RESULT:      -6.2     31.124     33.681
REMARK  2 active torsions:
REMARK  status: ('A' for Active; 'I' for Inactive)
REMARK    1  A    between atoms: O2_2  and  C5_8 
REMARK    2  A    between atoms: O3_3  and  C6_9 
ROOT
HETATM    1  O1  UNK   900       7.150 -68.657 -51.242  1.00  0.00    -0.366 OA
HETATM    2  C1  UNK   900       5.542 -67.768 -49.715  1.00  0.00     0.029 C 
HETATM    3  C2  UNK   900       6.606 -67.057 -48.893  1.00  0.00     0.058 C 
HETATM    4  C3  UNK   900       5.922 -67.903 -51.198  1.00  0.00     0.062 C 
HETATM    5  C4  UNK   900       8.269 -67.986 -50.626  1.00  0.00     0.088 C 
HETATM    6  C5  UNK   900       7.963 -67.717 -49.111  1.00  0.00     0.160 C 
HETATM    7  C6  UNK   900       5.976 -67.000 -47.487  1.00  0.00     0.061 C 
HETATM    8  C7  UNK   900       4.285 -67.015 -49.306  1.00  0.00     0.011 C 
HETATM    9  C8  UNK   900       8.603 -66.712 -51.472  1.00  0.00     0.018 C 
HETATM   10  C9  UNK   900       4.465 -66.801 -47.789  1.00  0.00     0.038 C 
HETATM   11  C10 UNK   900       6.102 -66.597 -51.997  1.00  0.00     0.038 C 
HETATM   12  C11 UNK   900       7.375 -65.811 -51.687  1.00  0.00     0.010 C 
HETATM   13  C12 UNK   900       4.865 -68.764 -51.908  1.00  0.00     0.046 C 
HETATM   14  C13 UNK   900       9.438 -68.992 -50.675  1.00  0.00     0.049 C 
HETATM   15  C14 UNK   900       6.218 -68.230 -46.611  1.00  0.00     0.046 C 
HETATM   16  C15 UNK   900       9.182 -67.055 -52.860  1.00  0.00     0.013 C 
ENDROOT
BRANCH   7  17
HETATM   17  O3  UNK   900       6.486 -65.864 -46.794  1.00  0.00    -0.390 OA
HETATM   18  H26 UNK   900       5.785 -65.189 -46.773  1.00  0.00     0.210 HD
ENDBRANCH   7  17
BRANCH   6  19
HETATM   19  O2  UNK   900       8.995 -66.930 -48.531  1.00  0.00    -0.392 OA
HETATM   20  H25 UNK   900       9.251 -67.348 -47.692  1.00  0.00     0.210 HD
ENDBRANCH   6  19
TORSDOF 2
ENDMDL
MODEL 3
REMARK VINA RESULT:      -5.9     30.893     34.086
REMARK  2 active torsions:
REMARK  status: ('A' for Active; 'I' for Inactive)
REMARK    1  A    between atoms: O2_2  and  C5_8 
REMARK    2  A    between atoms: O3_3  and  C6_9 
ROOT
HETATM    1  O1  UNK   900       4.469 -67.914 -51.597  1.00  0.00    -0.366 OA
HETATM    2  C1  UNK   900       6.752 -68.490 -51.195  1.00  0.00     0.029 C 
HETATM    3  C2  UNK   900       7.139 -67.052 -50.885  1.00  0.00     0.058 C 
HETATM    4  C3  UNK   900       5.295 -68.811 -50.827  1.00  0.00     0.062 C 
HETATM    5  C4  UNK   900       4.645 -66.523 -51.256  1.00  0.00     0.088 C 
HETATM    6  C5  UNK   900       6.132 -66.094 -51.514  1.00  0.00     0.160 C 
HETATM    7  C6  UNK   900       8.627 -66.999 -51.283  1.00  0.00     0.061 C 
HETATM    8  C7  UNK   900       7.898 -69.258 -50.553  1.00  0.00     0.011 C 
HETATM    9  C8  UNK   900       4.136 -66.308 -49.791  1.00  0.00     0.018 C 
HETATM   10  C9  UNK   900       9.142 -68.413 -50.894  1.00  0.00     0.038 C 
HETATM   11  C10 UNK   900       4.908 -68.705 -49.340  1.00  0.00     0.038 C 
HETATM   12  C11 UNK   900       4.787 -67.283 -48.795  1.00  0.00     0.010 C 
HETATM   13  C12 UNK   900       4.959 -70.229 -51.317  1.00  0.00     0.046 C 
HETATM   14  C13 UNK   900       3.772 -65.735 -52.254  1.00  0.00     0.049 C 
HETATM   15  C14 UNK   900       8.902 -66.684 -52.754  1.00  0.00     0.046 C 
HETATM   16  C15 UNK   900       2.607 -66.460 -49.663  1.00  0.00     0.013 C 
ENDROOT
BRANCH   7  17
HETATM   17  O3  UNK   900       9.285 -66.010 -50.495  1.00  0.00    -0.390 OA
HETATM   18  H26 UNK   900       9.642 -65.337 -51.099  1.00  0.00     0.210 HD
ENDBRANCH   7  17
BRANCH   6  19
HETATM   19  O2  UNK   900       6.352 -64.769 -51.046  1.00  0.00    -0.392 OA
HETATM   20  H25 UNK   900       5.884 -64.672 -50.200  1.00  0.00     0.210 HD
ENDBRANCH   6  19
TORSDOF 2
ENDMDL
MODEL 4
REMARK VINA RESULT:      -5.7     31.406     33.891
REMARK  2 active torsions:
REMARK  status: ('A' for Active; 'I' for Inactive)
REMARK    1  A    between atoms: O2_2  and  C5_8 
REMARK    2  A    between atoms: O3_3  and  C6_9 
ROOT
HETATM    1  O1  UNK   900       6.918 -68.031 -51.991  1.00  0.00    -0.366 OA
HETATM    2  C1  UNK   900       7.277 -69.636 -50.258  1.00  0.00     0.029 C 
HETATM    3  C2  UNK   900       7.757 -68.578 -49.276  1.00  0.00     0.058 C 
HETATM    4  C3  UNK   900       6.258 -69.093 -51.272  1.00  0.00     0.062 C 
HETATM    5  C4  UNK   900       7.267 -66.900 -51.167  1.00  0.00     0.088 C 
HETATM    6  C5  UNK   900       8.253 -67.350 -50.032  1.00  0.00     0.160 C 
HETATM    7  C6  UNK   900       8.706 -69.368 -48.353  1.00  0.00     0.061 C 
HETATM    8  C7  UNK   900       6.904 -70.775 -49.322  1.00  0.00     0.011 C 
HETATM    9  C8  UNK   900       5.945 -66.226 -50.670  1.00  0.00     0.018 C 
HETATM   10  C9  UNK   900       8.026 -70.762 -48.264  1.00  0.00     0.038 C 
HETATM   11  C10 UNK   900       4.921 -68.570 -50.711  1.00  0.00     0.038 C 
HETATM   12  C11 UNK   900       4.997 -67.227 -49.987  1.00  0.00     0.010 C 
HETATM   13  C12 UNK   900       5.955 -70.187 -52.309  1.00  0.00     0.046 C 
HETATM   14  C13 UNK   900       8.052 -65.940 -52.087  1.00  0.00     0.049 C 
HETATM   15  C14 UNK   900      10.152 -69.476 -48.837  1.00  0.00     0.046 C 
HETATM   16  C15 UNK   900       5.161 -65.541 -51.809  1.00  0.00     0.013 C 
ENDROOT
BRANCH   7  17
HETATM   17  O3  UNK   900       8.722 -68.754 -47.067  1.00  0.00    -0.390 OA
HETATM   18  H26 UNK   900       9.354 -69.242 -46.511  1.00  0.00     0.210 HD
ENDBRANCH   7  17
BRANCH   6  19
HETATM   19  O2  UNK   900       8.490 -66.277 -49.130  1.00  0.00    -0.392 OA
HETATM   20  H25 UNK   900       7.681 -66.146 -48.606  1.00  0.00     0.210 HD
ENDBRANCH   6  19
TORSDOF 2
ENDMDL
MODEL 5
REMARK VINA RESULT:      -5.5     10.718     12.877
REMARK  2 active torsions:
REMARK  status: ('A' for Active; 'I' for Inactive)
REMARK    1  A    between atoms: O2_2  and  C5_8 
REMARK    2  A    between atoms: O3_3  and  C6_9 
ROOT
HETATM    1  O1  UNK   900      37.017 -36.531 -60.148  1.00  0.00    -0.366 OA
HETATM    2  C1  UNK   900      35.364 -35.134 -59.138  1.00  0.00     0.029 C 
HETATM    3  C2  UNK   900      35.057 -36.153 -58.052  1.00  0.00     0.058 C 
HETATM    4  C3  UNK   900      36.818 -35.200 -59.629  1.00  0.00     0.062 C 
HETATM    5  C4  UNK   900      36.909 -37.567 -59.150  1.00  0.00     0.088 C 
HETATM    6  C5  UNK   900      35.476 -37.546 -58.511  1.00  0.00     0.160 C 
HETATM    7  C6  UNK   900      33.587 -35.852 -57.699  1.00  0.00     0.061 C 
HETATM    8  C7  UNK   900      34.815 -33.856 -58.521  1.00  0.00     0.011 C 
HETATM    9  C8  UNK   900      38.091 -37.399 -58.137  1.00  0.00     0.018 C 
HETATM   10  C9  UNK   900      33.501 -34.308 -57.852  1.00  0.00     0.038 C 
HETATM   11  C10 UNK   900      37.921 -34.888 -58.599  1.00  0.00     0.038 C 
HETATM   12  C11 UNK   900      38.167 -35.976 -57.556  1.00  0.00     0.010 C 
HETATM   13  C12 UNK   900      36.985 -34.247 -60.824  1.00  0.00     0.046 C 
HETATM   14  C13 UNK   900      37.038 -38.900 -59.916  1.00  0.00     0.049 C 
HETATM   15  C14 UNK   900      32.546 -36.563 -58.564  1.00  0.00     0.046 C 
HETATM   16  C15 UNK   900      39.463 -37.723 -58.763  1.00  0.00     0.013 C 
ENDROOT
BRANCH   7  17
HETATM   17  O3  UNK   900      33.350 -36.219 -56.342  1.00  0.00    -0.390 OA
HETATM   18  H26 UNK   900      32.888 -37.075 -56.341  1.00  0.00     0.210 HD
ENDBRANCH   7  17
BRANCH   6  19
HETATM   19  O2  UNK   900      35.405 -38.465 -57.428  1.00  0.00    -0.392 OA
HETATM   20  H25 UNK   900      35.090 -37.979 -56.647  1.00  0.00     0.210 HD
ENDBRANCH   6  19
TORSDOF 2
ENDMDL
MODEL 6
REMARK VINA RESULT:      -5.4     24.707     27.430
REMARK  2 active torsions:
REMARK  status: ('A' for Active; 'I' for Inactive)
REMARK    1  A    between atoms: O2_2  and  C5_8 
REMARK    2  A    between atoms: O3_3  and  C6_9 
ROOT
HETATM    1  O1  UNK   900      24.765 -59.842 -36.006  1.00  0.00    -0.366 OA
HETATM    2  C1  UNK   900      26.209 -58.709 -37.535  1.00  0.00     0.029 C 
HETATM    3  C2  UNK   900      26.567 -59.994 -38.265  1.00  0.00     0.058 C 
HETATM    4  C3  UNK   900      24.796 -58.737 -36.931  1.00  0.00     0.062 C 
HETATM    5  C4  UNK   900      24.931 -61.131 -36.632  1.00  0.00     0.088 C 
HETATM    6  C5  UNK   900      26.320 -61.196 -37.359  1.00  0.00     0.160 C 
HETATM    7  C6  UNK   900      27.977 -59.700 -38.813  1.00  0.00     0.061 C 
HETATM    8  C7  UNK   900      26.588 -57.656 -38.565  1.00  0.00     0.011 C 
HETATM    9  C8  UNK   900      23.690 -61.397 -37.547  1.00  0.00     0.018 C 
HETATM   10  C9  UNK   900      27.907 -58.187 -39.162  1.00  0.00     0.038 C 
HETATM   11  C10 UNK   900      23.616 -58.866 -37.915  1.00  0.00     0.038 C 
HETATM   12  C11 UNK   900      23.434 -60.248 -38.539  1.00  0.00     0.010 C 
HETATM   13  C12 UNK   900      24.589 -57.468 -36.089  1.00  0.00     0.046 C 
HETATM   14  C13 UNK   900      24.982 -62.153 -35.478  1.00  0.00     0.049 C 
HETATM   15  C14 UNK   900      29.129 -60.004 -37.855  1.00  0.00     0.046 C 
HETATM   16  C15 UNK   900      22.393 -61.617 -36.742  1.00  0.00     0.013 C 
ENDROOT
BRANCH   7  17
HETATM   17  O3  UNK   900      28.184 -60.461 -40.000  1.00  0.00    -0.390 OA
HETATM   18  H26 UNK   900      27.355 -60.449 -40.510  1.00  0.00     0.210 HD
ENDBRANCH   7  17
BRANCH   6  19
HETATM   19  O2  UNK   900      26.434 -62.404 -38.100  1.00  0.00    -0.392 OA
HETATM   20  H25 UNK   900      25.694 -62.980 -37.843  1.00  0.00     0.210 HD
ENDBRANCH   6  19
TORSDOF 2
ENDMDL
MODEL 7
REMARK VINA RESULT:      -5.4     33.123     34.659
REMARK  2 active torsions:
REMARK  status: ('A' for Active; 'I' for Inactive)
REMARK    1  A    between atoms: O2_2  and  C5_8 
REMARK    2  A    between atoms: O3_3  and  C6_9 
ROOT
HETATM    1  O1  UNK   900       8.550 -71.455 -48.253  1.00  0.00    -0.366 OA
HETATM    2  C1  UNK   900       7.700 -69.325 -48.919  1.00  0.00     0.029 C 
HETATM    3  C2  UNK   900       8.092 -68.673 -47.602  1.00  0.00     0.058 C 
HETATM    4  C3  UNK   900       8.629 -70.483 -49.315  1.00  0.00     0.062 C 
HETATM    5  C4  UNK   900       9.058 -70.981 -46.989  1.00  0.00     0.088 C 
HETATM    6  C5  UNK   900       8.231 -69.734 -46.516  1.00  0.00     0.160 C 
HETATM    7  C6  UNK   900       7.064 -67.533 -47.460  1.00  0.00     0.061 C 
HETATM    8  C7  UNK   900       7.547 -68.113 -49.826  1.00  0.00     0.011 C 
HETATM    9  C8  UNK   900      10.597 -70.739 -47.138  1.00  0.00     0.018 C 
HETATM   10  C9  UNK   900       6.853 -67.069 -48.928  1.00  0.00     0.038 C 
HETATM   11  C10 UNK   900      10.108 -70.137 -49.575  1.00  0.00     0.038 C 
HETATM   12  C11 UNK   900      10.936 -69.827 -48.330  1.00  0.00     0.010 C 
HETATM   13  C12 UNK   900       8.063 -71.170 -50.568  1.00  0.00     0.046 C 
HETATM   14  C13 UNK   900       8.782 -72.112 -45.977  1.00  0.00     0.049 C 
HETATM   15  C14 UNK   900       5.743 -67.921 -46.796  1.00  0.00     0.046 C 
HETATM   16  C15 UNK   900      11.392 -72.050 -47.310  1.00  0.00     0.013 C 
ENDROOT
BRANCH   7  17
HETATM   17  O3  UNK   900       7.643 -66.477 -46.697  1.00  0.00    -0.390 OA
HETATM   18  H26 UNK   900       7.350 -65.634 -47.085  1.00  0.00     0.210 HD
ENDBRANCH   7  17
BRANCH   6  19
HETATM   19  O2  UNK   900       8.813 -69.171 -45.347  1.00  0.00    -0.392 OA
HETATM   20  H25 UNK   900       9.343 -69.862 -44.917  1.00  0.00     0.210 HD
ENDBRANCH   6  19
TORSDOF 2
ENDMDL
MODEL 8
REMARK VINA RESULT:      -5.4     31.235     34.555
REMARK  2 active torsions:
REMARK  status: ('A' for Active; 'I' for Inactive)
REMARK    1  A    between atoms: O2_2  and  C5_8 
REMARK    2  A    between atoms: O3_3  and  C6_9 
ROOT
HETATM    1  O1  UNK   900       6.793 -70.671 -51.524  1.00  0.00    -0.366 OA
HETATM    2  C1  UNK   900       8.006 -68.858 -50.552  1.00  0.00     0.029 C 
HETATM    3  C2  UNK   900       7.024 -67.821 -51.076  1.00  0.00     0.058 C 
HETATM    4  C3  UNK   900       7.350 -70.219 -50.273  1.00  0.00     0.062 C 
HETATM    5  C4  UNK   900       5.729 -69.835 -52.024  1.00  0.00     0.088 C 
HETATM    6  C5  UNK   900       6.264 -68.381 -52.273  1.00  0.00     0.160 C 
HETATM    7  C6  UNK   900       7.897 -66.559 -51.220  1.00  0.00     0.061 C 
HETATM    8  C7  UNK   900       8.694 -68.089 -49.433  1.00  0.00     0.011 C 
HETATM    9  C8  UNK   900       4.518 -69.938 -51.038  1.00  0.00     0.018 C 
HETATM   10  C9  UNK   900       8.880 -66.676 -50.022  1.00  0.00     0.038 C 
HETATM   11  C10 UNK   900       6.256 -70.260 -49.188  1.00  0.00     0.038 C 
HETATM   12  C11 UNK   900       4.919 -69.636 -49.583  1.00  0.00     0.010 C 
HETATM   13  C12 UNK   900       8.442 -71.233 -49.900  1.00  0.00     0.046 C 
HETATM   14  C13 UNK   900       5.355 -70.417 -53.404  1.00  0.00     0.049 C 
HETATM   15  C14 UNK   900       8.642 -66.425 -52.549  1.00  0.00     0.046 C 
HETATM   16  C15 UNK   900       3.848 -71.327 -51.060  1.00  0.00     0.013 C 
ENDROOT
BRANCH   7  17
HETATM   17  O3  UNK   900       7.076 -65.405 -51.062  1.00  0.00    -0.390 OA
HETATM   18  H26 UNK   900       6.545 -65.525 -50.255  1.00  0.00     0.210 HD
ENDBRANCH   7  17
BRANCH   6  19
HETATM   19  O2  UNK   900       5.193 -67.515 -52.627  1.00  0.00    -0.392 OA
HETATM   20  H25 UNK   900       4.424 -67.758 -52.085  1.00  0.00     0.210 HD
ENDBRANCH   6  19
TORSDOF 2
ENDMDL
MODEL 9
REMARK VINA RESULT:      -5.4     33.185     35.976
REMARK  2 active torsions:
REMARK  status: ('A' for Active; 'I' for Inactive)
REMARK    1  A    between atoms: O2_2  and  C5_8 
REMARK    2  A    between atoms: O3_3  and  C6_9 
ROOT
HETATM    1  O1  UNK   900       1.808 -67.730 -50.485  1.00  0.00    -0.366 OA
HETATM    2  C1  UNK   900       3.990 -67.134 -49.716  1.00  0.00     0.029 C 
HETATM    3  C2  UNK   900       4.175 -66.098 -50.814  1.00  0.00     0.058 C 
HETATM    4  C3  UNK   900       2.521 -67.313 -49.303  1.00  0.00     0.062 C 
HETATM    5  C4  UNK   900       1.786 -66.739 -51.532  1.00  0.00     0.088 C 
HETATM    6  C5  UNK   900       3.251 -66.409 -51.987  1.00  0.00     0.160 C 
HETATM    7  C6  UNK   900       5.704 -66.066 -51.006  1.00  0.00     0.061 C 
HETATM    8  C7  UNK   900       5.030 -66.690 -48.699  1.00  0.00     0.011 C 
HETATM    9  C8  UNK   900       0.955 -65.511 -51.030  1.00  0.00     0.018 C 
HETATM   10  C9  UNK   900       6.241 -66.289 -49.565  1.00  0.00     0.038 C 
HETATM   11  C10 UNK   900       1.811 -66.090 -48.690  1.00  0.00     0.038 C 
HETATM   12  C11 UNK   900       1.454 -64.979 -49.675  1.00  0.00     0.010 C 
HETATM   13  C12 UNK   900       2.421 -68.481 -48.309  1.00  0.00     0.046 C 
HETATM   14  C13 UNK   900       1.086 -67.413 -52.731  1.00  0.00     0.049 C 
HETATM   15  C14 UNK   900       6.264 -67.100 -51.983  1.00  0.00     0.046 C 
HETATM   16  C15 UNK   900      -0.547 -65.830 -50.882  1.00  0.00     0.013 C 
ENDROOT
BRANCH   7  17
HETATM   17  O3  UNK   900       6.088 -64.774 -51.471  1.00  0.00    -0.390 OA
HETATM   18  H26 UNK   900       6.805 -64.452 -50.897  1.00  0.00     0.210 HD
ENDBRANCH   7  17
BRANCH   6  19
HETATM   19  O2  UNK   900       3.250 -65.331 -52.914  1.00  0.00    -0.392 OA
HETATM   20  H25 UNK   900       2.493 -64.759 -52.702  1.00  0.00     0.210 HD
ENDBRANCH   6  19
TORSDOF 2
ENDMDL
