MODEL 1
REMARK VINA RESULT:      -5.5      0.000      0.000
REMARK  2 active torsions:
REMARK  status: ('A' for Active; 'I' for Inactive)
REMARK    1  A    between atoms: O1_1  and  C2_4 
REMARK    2  A    between atoms: C6_8  and  C11_13 
ROOT
HETATM    1  O2  UNK   900      28.381 -27.660 -52.590  1.00  0.00    -0.292 OA
HETATM    2  C1  UNK   900      26.268 -26.438 -52.529  1.00  0.00     0.074 C 
HETATM    3  C2  UNK   900      26.294 -26.013 -54.007  1.00  0.00     0.142 C 
HETATM    4  C3  UNK   900      24.960 -27.075 -52.113  1.00  0.00    -0.033 C 
HETATM    5  C4  UNK   900      27.195 -27.619 -52.292  1.00  0.00     0.165 C 
HETATM    6  C5  UNK   900      25.498 -24.746 -54.350  1.00  0.00     0.067 C 
HETATM    7  C6  UNK   900      25.235 -28.378 -51.523  1.00  0.00    -0.047 C 
HETATM    8  C7  UNK   900      26.702 -25.318 -51.571  1.00  0.00     0.032 C 
HETATM    9  C8  UNK   900      26.519 -28.733 -51.614  1.00  0.00     0.059 C 
HETATM   10  C9  UNK   900      23.736 -26.575 -52.339  1.00  0.00     0.009 C 
HETATM   11  C10 UNK   900      24.095 -24.542 -53.811  1.00  0.00    -0.081 C 
HETATM   12  C12 UNK   900      23.397 -25.316 -52.959  1.00  0.00     0.003 C 
HETATM   13  C13 UNK   900      23.457 -23.268 -54.319  1.00  0.00     0.043 C 
ENDROOT
BRANCH   3  14
HETATM   14  O1  UNK   900      25.878 -27.082 -54.864  1.00  0.00    -0.394 OA
HETATM   15  H12 UNK   900      26.675 -27.468 -55.266  1.00  0.00     0.210 HD
ENDBRANCH   3  14
BRANCH   7  16
HETATM   16  C11 UNK   900      24.178 -29.232 -50.905  1.00  0.00     0.035 C 
HETATM   17  C14 UNK   900      24.759 -30.484 -50.270  1.00  0.00     0.010 C 
ENDBRANCH   7  16
TORSDOF 2
ENDMDL
MODEL 2
REMARK VINA RESULT:      -5.3     33.626     35.952
REMARK  2 active torsions:
REMARK  status: ('A' for Active; 'I' for Inactive)
REMARK    1  A    between atoms: O1_1  and  C2_4 
REMARK    2  A    between atoms: C6_8  and  C11_13 
ROOT
HETATM    1  O2  UNK   900      27.076 -62.549 -37.373  1.00  0.00    -0.292 OA
HETATM    2  C1  UNK   900      27.399 -60.143 -37.642  1.00  0.00     0.074 C 
HETATM    3  C2  UNK   900      28.503 -60.255 -38.706  1.00  0.00     0.142 C 
HETATM    4  C3  UNK   900      26.282 -59.201 -38.034  1.00  0.00    -0.033 C 
HETATM    5  C4  UNK   900      26.602 -61.435 -37.554  1.00  0.00     0.165 C 
HETATM    6  C5  UNK   900      29.461 -59.060 -38.799  1.00  0.00     0.067 C 
HETATM    7  C6  UNK   900      25.012 -59.909 -37.945  1.00  0.00    -0.047 C 
HETATM    8  C7  UNK   900      27.943 -59.847 -36.236  1.00  0.00     0.032 C 
HETATM    9  C8  UNK   900      25.156 -61.208 -37.675  1.00  0.00     0.059 C 
HETATM   10  C9  UNK   900      26.435 -57.949 -38.491  1.00  0.00     0.009 C 
HETATM   11  C10 UNK   900      28.933 -57.639 -38.797  1.00  0.00    -0.081 C 
HETATM   12  C12 UNK   900      27.665 -57.210 -38.647  1.00  0.00     0.003 C 
HETATM   13  C13 UNK   900      30.029 -56.610 -38.966  1.00  0.00     0.043 C 
ENDROOT
BRANCH   3  14
HETATM   14  O1  UNK   900      27.953 -60.525 -40.001  1.00  0.00    -0.394 OA
HETATM   15  H12 UNK   900      28.064 -59.726 -40.543  1.00  0.00     0.210 HD
ENDBRANCH   3  14
BRANCH   7  16
HETATM   16  C11 UNK   900      23.693 -59.245 -38.159  1.00  0.00     0.035 C 
HETATM   17  C14 UNK   900      22.756 -60.099 -38.998  1.00  0.00     0.010 C 
ENDBRANCH   7  16
TORSDOF 2
ENDMDL
MODEL 3
REMARK VINA RESULT:      -5.1     43.417     45.378
REMARK  2 active torsions:
REMARK  status: ('A' for Active; 'I' for Inactive)
REMARK    1  A    between atoms: O1_1  and  C2_4 
REMARK    2  A    between atoms: C6_8  and  C11_13 
ROOT
HETATM    1  O2  UNK   900       6.841 -70.704 -50.670  1.00  0.00    -0.292 OA
HETATM    2  C1  UNK   900       5.974 -68.564 -51.464  1.00  0.00     0.074 C 
HETATM    3  C2  UNK   900       4.663 -68.623 -50.662  1.00  0.00     0.142 C 
HETATM    4  C3  UNK   900       6.721 -67.259 -51.296  1.00  0.00    -0.033 C 
HETATM    5  C4  UNK   900       7.009 -69.509 -50.875  1.00  0.00     0.165 C 
HETATM    6  C5  UNK   900       3.495 -67.809 -51.235  1.00  0.00     0.067 C 
HETATM    7  C6  UNK   900       8.081 -67.545 -50.861  1.00  0.00    -0.047 C 
HETATM    8  C7  UNK   900       5.796 -68.947 -52.941  1.00  0.00     0.032 C 
HETATM    9  C8  UNK   900       8.286 -68.838 -50.600  1.00  0.00     0.059 C 
HETATM   10  C9  UNK   900       6.196 -66.031 -51.423  1.00  0.00     0.009 C 
HETATM   11  C10 UNK   900       3.703 -66.388 -51.721  1.00  0.00    -0.081 C 
HETATM   12  C12 UNK   900       4.847 -65.683 -51.802  1.00  0.00     0.003 C 
HETATM   13  C13 UNK   900       2.418 -65.737 -52.183  1.00  0.00     0.043 C 
ENDROOT
BRANCH   3  14
HETATM   14  O1  UNK   900       4.873 -68.254 -49.294  1.00  0.00    -0.394 OA
HETATM   15  H12 UNK   900       4.101 -67.739 -49.004  1.00  0.00     0.210 HD
ENDBRANCH   3  14
BRANCH   7  16
HETATM   16  C11 UNK   900       9.125 -66.490 -50.703  1.00  0.00     0.035 C 
HETATM   17  C14 UNK   900       9.801 -66.557 -49.344  1.00  0.00     0.010 C 
ENDBRANCH   7  16
TORSDOF 2
ENDMDL
MODEL 4
REMARK VINA RESULT:      -5.0      3.586      6.913
REMARK  2 active torsions:
REMARK  status: ('A' for Active; 'I' for Inactive)
REMARK    1  A    between atoms: O1_1  and  C2_4 
REMARK    2  A    between atoms: C6_8  and  C11_13 
ROOT
HETATM    1  O2  UNK   900      20.063 -28.989 -49.199  1.00  0.00    -0.292 OA
HETATM    2  C1  UNK   900      22.371 -29.782 -49.256  1.00  0.00     0.074 C 
HETATM    3  C2  UNK   900      22.020 -31.256 -49.523  1.00  0.00     0.142 C 
HETATM    4  C3  UNK   900      23.409 -29.232 -50.209  1.00  0.00    -0.033 C 
HETATM    5  C4  UNK   900      21.206 -28.876 -49.620  1.00  0.00     0.165 C 
HETATM    6  C5  UNK   900      23.068 -32.282 -49.072  1.00  0.00     0.067 C 
HETATM    7  C6  UNK   900      22.881 -28.030 -50.840  1.00  0.00    -0.047 C 
HETATM    8  C7  UNK   900      22.724 -29.503 -47.786  1.00  0.00     0.032 C 
HETATM    9  C8  UNK   900      21.605 -27.793 -50.528  1.00  0.00     0.059 C 
HETATM   10  C9  UNK   900      24.583 -29.807 -50.510  1.00  0.00     0.009 C 
HETATM   11  C10 UNK   900      24.539 -32.072 -49.373  1.00  0.00    -0.081 C 
HETATM   12  C12 UNK   900      25.139 -31.019 -49.958  1.00  0.00     0.003 C 
HETATM   13  C13 UNK   900      25.399 -33.228 -48.907  1.00  0.00     0.043 C 
ENDROOT
BRANCH   3  14
HETATM   14  O1  UNK   900      21.703 -31.474 -50.902  1.00  0.00    -0.394 OA
HETATM   15  H12 UNK   900      22.522 -31.738 -51.356  1.00  0.00     0.210 HD
ENDBRANCH   3  14
BRANCH   7  16
HETATM   16  C11 UNK   900      23.686 -27.170 -51.757  1.00  0.00     0.035 C 
HETATM   17  C14 UNK   900      22.910 -25.948 -52.217  1.00  0.00     0.010 C 
ENDBRANCH   7  16
TORSDOF 2
ENDMDL
MODEL 5
REMARK VINA RESULT:      -5.0     12.438     14.485
REMARK  2 active torsions:
REMARK  status: ('A' for Active; 'I' for Inactive)
REMARK    1  A    between atoms: O1_1  and  C2_4 
REMARK    2  A    between atoms: C6_8  and  C11_13 
ROOT
HETATM    1  O2  UNK   900      35.997 -27.892 -58.854  1.00  0.00    -0.292 OA
HETATM    2  C1  UNK   900      36.390 -30.290 -59.096  1.00  0.00     0.074 C 
HETATM    3  C2  UNK   900      35.022 -30.726 -58.545  1.00  0.00     0.142 C 
HETATM    4  C3  UNK   900      36.737 -30.939 -60.418  1.00  0.00    -0.033 C 
HETATM    5  C4  UNK   900      36.352 -28.838 -59.545  1.00  0.00     0.165 C 
HETATM    6  C5  UNK   900      34.966 -32.135 -57.938  1.00  0.00     0.067 C 
HETATM    7  C6  UNK   900      37.051 -29.899 -61.388  1.00  0.00    -0.047 C 
HETATM    8  C7  UNK   900      37.524 -30.420 -58.067  1.00  0.00     0.032 C 
HETATM    9  C8  UNK   900      36.835 -28.667 -60.922  1.00  0.00     0.059 C 
HETATM   10  C9  UNK   900      36.668 -32.251 -60.692  1.00  0.00     0.009 C 
HETATM   11  C10 UNK   900      35.599 -33.313 -58.653  1.00  0.00    -0.081 C 
HETATM   12  C12 UNK   900      36.318 -33.323 -59.791  1.00  0.00     0.003 C 
HETATM   13  C13 UNK   900      35.375 -34.621 -57.926  1.00  0.00     0.043 C 
ENDROOT
BRANCH   3  14
HETATM   14  O1  UNK   900      33.996 -30.594 -59.535  1.00  0.00    -0.394 OA
HETATM   15  H12 UNK   900      34.073 -29.708 -59.927  1.00  0.00     0.210 HD
ENDBRANCH   3  14
BRANCH   7  16
HETATM   16  C11 UNK   900      37.542 -30.191 -62.767  1.00  0.00     0.035 C 
HETATM   17  C14 UNK   900      39.049 -30.385 -62.804  1.00  0.00     0.010 C 
ENDBRANCH   7  16
TORSDOF 2
ENDMDL
MODEL 6
REMARK VINA RESULT:      -4.9     41.620     42.590
REMARK  2 active torsions:
REMARK  status: ('A' for Active; 'I' for Inactive)
REMARK    1  A    between atoms: O1_1  and  C2_4 
REMARK    2  A    between atoms: C6_8  and  C11_13 
ROOT
HETATM    1  O2  UNK   900      26.843 -68.911 -64.010  1.00  0.00    -0.292 OA
HETATM    2  C1  UNK   900      27.562 -67.156 -65.549  1.00  0.00     0.074 C 
HETATM    3  C2  UNK   900      28.679 -67.980 -66.210  1.00  0.00     0.142 C 
HETATM    4  C3  UNK   900      26.630 -66.502 -66.546  1.00  0.00    -0.033 C 
HETATM    5  C4  UNK   900      26.564 -68.065 -64.850  1.00  0.00     0.165 C 
HETATM    6  C5  UNK   900      29.821 -67.170 -66.839  1.00  0.00     0.067 C 
HETATM    7  C6  UNK   900      25.260 -66.888 -66.237  1.00  0.00    -0.047 C 
HETATM    8  C7  UNK   900      28.085 -66.161 -64.501  1.00  0.00     0.032 C 
HETATM    9  C8  UNK   900      25.180 -67.798 -65.263  1.00  0.00     0.059 C 
HETATM   10  C9  UNK   900      27.003 -65.771 -67.607  1.00  0.00     0.009 C 
HETATM   11  C10 UNK   900      29.529 -65.963 -67.709  1.00  0.00    -0.081 C 
HETATM   12  C12 UNK   900      28.342 -65.395 -67.994  1.00  0.00     0.003 C 
HETATM   13  C13 UNK   900      30.784 -65.347 -68.288  1.00  0.00     0.043 C 
ENDROOT
BRANCH   3  14
HETATM   14  O1  UNK   900      28.150 -68.889 -67.182  1.00  0.00    -0.394 OA
HETATM   15  H12 UNK   900      28.878 -69.148 -67.774  1.00  0.00     0.210 HD
ENDBRANCH   3  14
BRANCH   7  16
HETATM   16  C11 UNK   900      24.076 -66.335 -66.957  1.00  0.00     0.035 C 
HETATM   17  C14 UNK   900      22.886 -66.145 -66.031  1.00  0.00     0.010 C 
ENDBRANCH   7  16
TORSDOF 2
ENDMDL
MODEL 7
REMARK VINA RESULT:      -4.8     30.005     31.399
REMARK  2 active torsions:
REMARK  status: ('A' for Active; 'I' for Inactive)
REMARK    1  A    between atoms: O1_1  and  C2_4 
REMARK    2  A    between atoms: C6_8  and  C11_13 
ROOT
HETATM    1  O2  UNK   900      36.997 -54.769 -39.962  1.00  0.00    -0.292 OA
HETATM    2  C1  UNK   900      35.436 -53.633 -38.467  1.00  0.00     0.074 C 
HETATM    3  C2  UNK   900      35.978 -52.217 -38.728  1.00  0.00     0.142 C 
HETATM    4  C3  UNK   900      33.934 -53.735 -38.612  1.00  0.00    -0.033 C 
HETATM    5  C4  UNK   900      35.849 -54.581 -39.581  1.00  0.00     0.165 C 
HETATM    6  C5  UNK   900      35.738 -51.196 -37.607  1.00  0.00     0.067 C 
HETATM    7  C6  UNK   900      33.621 -54.792 -39.564  1.00  0.00    -0.047 C 
HETATM    8  C7  UNK   900      35.937 -54.236 -37.145  1.00  0.00     0.032 C 
HETATM    9  C8  UNK   900      34.705 -55.304 -40.152  1.00  0.00     0.059 C 
HETATM   10  C9  UNK   900      33.032 -52.921 -38.042  1.00  0.00     0.009 C 
HETATM   11  C10 UNK   900      34.382 -51.081 -36.939  1.00  0.00    -0.081 C 
HETATM   12  C12 UNK   900      33.280 -51.830 -37.131  1.00  0.00     0.003 C 
HETATM   13  C13 UNK   900      34.333 -49.971 -35.911  1.00  0.00     0.043 C 
ENDROOT
BRANCH   3  14
HETATM   14  O1  UNK   900      35.484 -51.690 -39.964  1.00  0.00    -0.394 OA
HETATM   15  H12 UNK   900      35.209 -52.441 -40.519  1.00  0.00     0.210 HD
ENDBRANCH   3  14
BRANCH   7  16
HETATM   16  C11 UNK   900      32.227 -55.235 -39.861  1.00  0.00     0.035 C 
HETATM   17  C14 UNK   900      31.751 -54.742 -41.217  1.00  0.00     0.010 C 
ENDBRANCH   7  16
TORSDOF 2
ENDMDL
MODEL 8
REMARK VINA RESULT:      -4.7     40.934     42.298
REMARK  2 active torsions:
REMARK  status: ('A' for Active; 'I' for Inactive)
REMARK    1  A    between atoms: O1_1  and  C2_4 
REMARK    2  A    between atoms: C6_8  and  C11_13 
ROOT
HETATM    1  O2  UNK   900      22.130 -69.255 -64.028  1.00  0.00    -0.292 OA
HETATM    2  C1  UNK   900      21.813 -67.536 -65.733  1.00  0.00     0.074 C 
HETATM    3  C2  UNK   900      20.731 -66.757 -64.966  1.00  0.00     0.142 C 
HETATM    4  C3  UNK   900      22.938 -66.658 -66.237  1.00  0.00    -0.033 C 
HETATM    5  C4  UNK   900      22.608 -68.425 -64.789  1.00  0.00     0.165 C 
HETATM    6  C5  UNK   900      19.775 -65.922 -65.829  1.00  0.00     0.067 C 
HETATM    7  C6  UNK   900      24.205 -67.191 -65.756  1.00  0.00    -0.047 C 
HETATM    8  C7  UNK   900      21.240 -68.439 -66.836  1.00  0.00     0.032 C 
HETATM    9  C8  UNK   900      24.056 -68.212 -64.909  1.00  0.00     0.059 C 
HETATM   10  C9  UNK   900      22.795 -65.516 -66.926  1.00  0.00     0.009 C 
HETATM   11  C10 UNK   900      20.304 -65.044 -66.946  1.00  0.00    -0.081 C 
HETATM   12  C12 UNK   900      21.568 -64.913 -67.390  1.00  0.00     0.003 C 
HETATM   13  C13 UNK   900      19.211 -64.251 -67.629  1.00  0.00     0.043 C 
ENDROOT
BRANCH   3  14
HETATM   14  O1  UNK   900      21.307 -65.925 -63.953  1.00  0.00    -0.394 OA
HETATM   15  H12 UNK   900      20.883 -65.052 -64.009  1.00  0.00     0.210 HD
ENDBRANCH   3  14
BRANCH   7  16
HETATM   16  C11 UNK   900      25.529 -66.630 -66.157  1.00  0.00     0.035 C 
HETATM   17  C14 UNK   900      26.525 -66.647 -65.009  1.00  0.00     0.010 C 
ENDBRANCH   7  16
TORSDOF 2
ENDMDL
MODEL 9
REMARK VINA RESULT:      -4.7     58.894     61.975
REMARK  2 active torsions:
REMARK  status: ('A' for Active; 'I' for Inactive)
REMARK    1  A    between atoms: O1_1  and  C2_4 
REMARK    2  A    between atoms: C6_8  and  C11_13 
ROOT
HETATM    1  O2  UNK   900      -4.767 -82.902 -55.616  1.00  0.00    -0.292 OA
HETATM    2  C1  UNK   900      -2.694 -81.952 -54.742  1.00  0.00     0.074 C 
HETATM    3  C2  UNK   900      -3.364 -80.793 -53.985  1.00  0.00     0.142 C 
HETATM    4  C3  UNK   900      -1.721 -82.739 -53.891  1.00  0.00    -0.033 C 
HETATM    5  C4  UNK   900      -3.699 -83.054 -55.038  1.00  0.00     0.165 C 
HETATM    6  C5  UNK   900      -2.483 -79.560 -53.742  1.00  0.00     0.067 C 
HETATM    7  C6  UNK   900      -2.089 -84.148 -53.932  1.00  0.00    -0.047 C 
HETATM    8  C7  UNK   900      -2.080 -81.523 -56.083  1.00  0.00     0.032 C 
HETATM    9  C8  UNK   900      -3.234 -84.371 -54.583  1.00  0.00     0.059 C 
HETATM   10  C9  UNK   900      -0.741 -82.222 -53.136  1.00  0.00     0.009 C 
HETATM   11  C10 UNK   900      -1.060 -79.709 -53.240  1.00  0.00    -0.081 C 
HETATM   12  C12 UNK   900      -0.358 -80.835 -53.015  1.00  0.00     0.003 C 
HETATM   13  C13 UNK   900      -0.386 -78.376 -52.999  1.00  0.00     0.043 C 
ENDROOT
BRANCH   3  14
HETATM   14  O1  UNK   900      -3.917 -81.234 -52.741  1.00  0.00    -0.394 OA
HETATM   15  H12 UNK   900      -3.911 -82.207 -52.741  1.00  0.00     0.210 HD
ENDBRANCH   3  14
BRANCH   7  16
HETATM   16  C11 UNK   900      -1.276 -85.222 -53.290  1.00  0.00     0.035 C 
HETATM   17  C14 UNK   900      -1.841 -85.633 -51.941  1.00  0.00     0.010 C 
ENDBRANCH   7  16
TORSDOF 2
ENDMDL
