MODEL 1
REMARK VINA RESULT:      -7.3      0.000      0.000
REMARK  3 active torsions:
REMARK  status: ('A' for Active; 'I' for Inactive)
REMARK    1  A    between atoms: O3_3  and  C5_11 
REMARK    2  A    between atoms: O4_4  and  C8_14 
REMARK    3  A    between atoms: O5_5  and  C10_16 
ROOT
HETATM    1  O1  UNK   900      29.655 -46.236 -64.381  1.00  0.00    -0.350 OA
HETATM    2  O2  UNK   900      31.974 -46.870 -64.534  1.00  0.00    -0.350 OA
HETATM    3  O6  UNK   900      31.680 -50.677 -62.734  1.00  0.00    -0.289 OA
HETATM    4  C1  UNK   900      31.016 -45.922 -64.042  1.00  0.00     0.170 C 
HETATM    5  C2  UNK   900      31.126 -45.880 -62.503  1.00  0.00     0.103 C 
HETATM    6  C3  UNK   900      31.373 -44.525 -64.596  1.00  0.00     0.100 C 
HETATM    7  C4  UNK   900      31.155 -47.256 -61.885  1.00  0.00    -0.060 C 
HETATM    8  C5  UNK   900      31.066 -44.386 -66.086  1.00  0.00     0.125 C 
HETATM    9  C6  UNK   900      30.902 -47.319 -60.404  1.00  0.00     0.070 C 
HETATM   10  C7  UNK   900      31.409 -48.330 -62.650  1.00  0.00     0.017 C 
HETATM   11  C8  UNK   900      30.875 -49.845 -60.613  1.00  0.00     0.145 C 
HETATM   12  C9  UNK   900      29.384 -46.232 -65.785  1.00  0.00     0.123 C 
HETATM   13  C10 UNK   900      31.351 -48.645 -59.787  1.00  0.00     0.164 C 
HETATM   14  C11 UNK   900      29.639 -44.844 -66.377  1.00  0.00     0.063 C 
HETATM   15  C12 UNK   900      31.726 -48.215 -64.113  1.00  0.00     0.214 C 
HETATM   16  C13 UNK   900      31.369 -49.701 -62.051  1.00  0.00     0.194 C 
HETATM   17  C14 UNK   900      31.319 -51.174 -60.002  1.00  0.00     0.057 C 
HETATM   18  C15 UNK   900      27.930 -46.645 -65.972  1.00  0.00     0.040 C 
ENDROOT
BRANCH   8  19
HETATM   19  O3  UNK   900      31.991 -45.168 -66.836  1.00  0.00    -0.395 OA
HETATM   20  H20 UNK   900      32.368 -45.833 -66.234  1.00  0.00     0.210 HD
ENDBRANCH   8  19
BRANCH  13  21
HETATM   21  O5  UNK   900      30.864 -48.721 -58.450  1.00  0.00    -0.392 OA
HETATM   22  H22 UNK   900      30.378 -47.899 -58.267  1.00  0.00     0.210 HD
ENDBRANCH  13  21
BRANCH  11  23
HETATM   23  O4  UNK   900      29.454 -49.843 -60.727  1.00  0.00    -0.379 OA
HETATM   24  H21 UNK   900      29.075 -49.844 -59.832  1.00  0.00     0.211 HD
ENDBRANCH  11  23
TORSDOF 3
ENDMDL
MODEL 2
REMARK VINA RESULT:      -7.3      1.725      3.009
REMARK  3 active torsions:
REMARK  status: ('A' for Active; 'I' for Inactive)
REMARK    1  A    between atoms: O3_3  and  C5_11 
REMARK    2  A    between atoms: O4_4  and  C8_14 
REMARK    3  A    between atoms: O5_5  and  C10_16 
ROOT
HETATM    1  O1  UNK   900      31.035 -47.203 -64.751  1.00  0.00    -0.350 OA
HETATM    2  O2  UNK   900      29.541 -45.926 -63.357  1.00  0.00    -0.350 OA
HETATM    3  O6  UNK   900      31.902 -45.841 -59.858  1.00  0.00    -0.289 OA
HETATM    4  C1  UNK   900      29.731 -47.103 -64.154  1.00  0.00     0.170 C 
HETATM    5  C2  UNK   900      29.526 -48.337 -63.249  1.00  0.00     0.103 C 
HETATM    6  C3  UNK   900      28.657 -47.127 -65.264  1.00  0.00     0.100 C 
HETATM    7  C4  UNK   900      30.272 -48.229 -61.942  1.00  0.00    -0.060 C 
HETATM    8  C5  UNK   900      28.913 -46.087 -66.354  1.00  0.00     0.125 C 
HETATM    9  C6  UNK   900      30.425 -49.506 -61.163  1.00  0.00     0.070 C 
HETATM   10  C7  UNK   900      30.741 -47.038 -61.534  1.00  0.00     0.017 C 
HETATM   11  C8  UNK   900      31.939 -48.241 -59.572  1.00  0.00     0.145 C 
HETATM   12  C9  UNK   900      31.335 -46.159 -65.682  1.00  0.00     0.123 C 
HETATM   13  C10 UNK   900      30.803 -49.261 -59.701  1.00  0.00     0.164 C 
HETATM   14  C11 UNK   900      30.351 -46.187 -66.853  1.00  0.00     0.063 C 
HETATM   15  C12 UNK   900      30.505 -45.775 -62.309  1.00  0.00     0.214 C 
HETATM   16  C13 UNK   900      31.542 -46.944 -60.272  1.00  0.00     0.194 C 
HETATM   17  C14 UNK   900      32.323 -47.991 -58.113  1.00  0.00     0.057 C 
HETATM   18  C15 UNK   900      32.764 -46.374 -66.165  1.00  0.00     0.040 C 
ENDROOT
BRANCH   8  19
HETATM   19  O3  UNK   900      28.667 -44.784 -65.832  1.00  0.00    -0.395 OA
HETATM   20  H20 UNK   900      29.527 -44.395 -65.597  1.00  0.00     0.210 HD
ENDBRANCH   8  19
BRANCH  13  21
HETATM   21  O5  UNK   900      31.161 -50.503 -59.102  1.00  0.00    -0.392 OA
HETATM   22  H22 UNK   900      30.383 -51.085 -59.145  1.00  0.00     0.210 HD
ENDBRANCH  13  21
BRANCH  11  23
HETATM   23  O4  UNK   900      33.093 -48.684 -60.282  1.00  0.00    -0.379 OA
HETATM   24  H21 UNK   900      33.870 -48.225 -59.919  1.00  0.00     0.211 HD
ENDBRANCH  11  23
TORSDOF 3
ENDMDL
MODEL 3
REMARK VINA RESULT:      -6.7     31.850     34.713
REMARK  3 active torsions:
REMARK  status: ('A' for Active; 'I' for Inactive)
REMARK    1  A    between atoms: O3_3  and  C5_11 
REMARK    2  A    between atoms: O4_4  and  C8_14 
REMARK    3  A    between atoms: O5_5  and  C10_16 
ROOT
HETATM    1  O1  UNK   900       7.282 -68.086 -50.244  1.00  0.00    -0.350 OA
HETATM    2  O2  UNK   900       6.888 -65.998 -49.108  1.00  0.00    -0.350 OA
HETATM    3  O6  UNK   900       2.717 -66.377 -48.576  1.00  0.00    -0.289 OA
HETATM    4  C1  UNK   900       7.383 -66.652 -50.285  1.00  0.00     0.170 C 
HETATM    5  C2  UNK   900       6.565 -66.152 -51.495  1.00  0.00     0.103 C 
HETATM    6  C3  UNK   900       8.859 -66.248 -50.492  1.00  0.00     0.100 C 
HETATM    7  C4  UNK   900       5.078 -66.167 -51.238  1.00  0.00    -0.060 C 
HETATM    8  C5  UNK   900       9.796 -66.899 -49.475  1.00  0.00     0.125 C 
HETATM    9  C6  UNK   900       4.198 -66.044 -52.451  1.00  0.00     0.070 C 
HETATM   10  C7  UNK   900       4.616 -66.274 -49.981  1.00  0.00     0.017 C 
HETATM   11  C8  UNK   900       2.214 -66.489 -50.938  1.00  0.00     0.145 C 
HETATM   12  C9  UNK   900       8.060 -68.699 -49.212  1.00  0.00     0.123 C 
HETATM   13  C10 UNK   900       2.763 -65.651 -52.097  1.00  0.00     0.164 C 
HETATM   14  C11 UNK   900       9.547 -68.403 -49.414  1.00  0.00     0.063 C 
HETATM   15  C12 UNK   900       5.530 -66.324 -48.792  1.00  0.00     0.214 C 
HETATM   16  C13 UNK   900       3.142 -66.360 -49.732  1.00  0.00     0.194 C 
HETATM   17  C14 UNK   900       0.779 -66.103 -50.579  1.00  0.00     0.057 C 
HETATM   18  C15 UNK   900       7.790 -70.197 -49.265  1.00  0.00     0.040 C 
ENDROOT
BRANCH   8  19
HETATM   19  O3  UNK   900       9.581 -66.316 -48.193  1.00  0.00    -0.395 OA
HETATM   20  H20 UNK   900       8.848 -65.683 -48.277  1.00  0.00     0.210 HD
ENDBRANCH   8  19
BRANCH  13  21
HETATM   21  O5  UNK   900       1.947 -65.789 -53.257  1.00  0.00    -0.392 OA
HETATM   22  H22 UNK   900       1.579 -66.690 -53.252  1.00  0.00     0.210 HD
ENDBRANCH  13  21
BRANCH  11  23
HETATM   23  O4  UNK   900       2.250 -67.877 -51.261  1.00  0.00    -0.379 OA
HETATM   24  H21 UNK   900       2.788 -68.333 -50.592  1.00  0.00     0.211 HD
ENDBRANCH  11  23
TORSDOF 3
ENDMDL
MODEL 4
REMARK VINA RESULT:      -6.5     27.133     28.616
REMARK  3 active torsions:
REMARK  status: ('A' for Active; 'I' for Inactive)
REMARK    1  A    between atoms: O3_3  and  C5_11 
REMARK    2  A    between atoms: O4_4  and  C8_14 
REMARK    3  A    between atoms: O5_5  and  C10_16 
ROOT
HETATM    1  O1  UNK   900      25.147 -23.440 -74.617  1.00  0.00    -0.350 OA
HETATM    2  O2  UNK   900      23.126 -22.128 -74.651  1.00  0.00    -0.350 OA
HETATM    3  O6  UNK   900      24.720 -18.527 -73.129  1.00  0.00    -0.289 OA
HETATM    4  C1  UNK   900      23.789 -23.304 -74.165  1.00  0.00     0.170 C 
HETATM    5  C2  UNK   900      23.804 -23.247 -72.623  1.00  0.00     0.103 C 
HETATM    6  C3  UNK   900      22.977 -24.544 -74.601  1.00  0.00     0.100 C 
HETATM    7  C4  UNK   900      24.249 -21.905 -72.095  1.00  0.00    -0.060 C 
HETATM    8  C5  UNK   900      23.099 -24.832 -76.097  1.00  0.00     0.125 C 
HETATM    9  C6  UNK   900      24.635 -21.863 -70.643  1.00  0.00     0.070 C 
HETATM   10  C7  UNK   900      24.269 -20.837 -72.910  1.00  0.00     0.017 C 
HETATM   11  C8  UNK   900      25.411 -19.479 -71.018  1.00  0.00     0.145 C 
HETATM   12  C9  UNK   900      25.281 -23.585 -76.034  1.00  0.00     0.123 C 
HETATM   13  C10 UNK   900      24.666 -20.439 -70.085  1.00  0.00     0.164 C 
HETATM   14  C11 UNK   900      24.566 -24.849 -76.515  1.00  0.00     0.063 C 
HETATM   15  C12 UNK   900      23.808 -20.909 -74.336  1.00  0.00     0.214 C 
HETATM   16  C13 UNK   900      24.776 -19.522 -72.406  1.00  0.00     0.194 C 
HETATM   17  C14 UNK   900      25.448 -18.054 -70.466  1.00  0.00     0.057 C 
HETATM   18  C15 UNK   900      26.771 -23.649 -76.348  1.00  0.00     0.040 C 
ENDROOT
BRANCH   8  19
HETATM   19  O3  UNK   900      22.394 -23.834 -76.830  1.00  0.00    -0.395 OA
HETATM   20  H20 UNK   900      21.637 -24.266 -77.262  1.00  0.00     0.210 HD
ENDBRANCH   8  19
BRANCH  13  21
HETATM   21  O5  UNK   900      25.266 -20.462 -68.792  1.00  0.00    -0.392 OA
HETATM   22  H22 UNK   900      24.712 -21.023 -68.222  1.00  0.00     0.210 HD
ENDBRANCH  13  21
BRANCH  11  23
HETATM   23  O4  UNK   900      26.749 -19.925 -71.230  1.00  0.00    -0.379 OA
HETATM   24  H21 UNK   900      27.335 -19.428 -70.634  1.00  0.00     0.211 HD
ENDBRANCH  11  23
TORSDOF 3
ENDMDL
MODEL 5
REMARK VINA RESULT:      -6.2      2.589      6.813
REMARK  3 active torsions:
REMARK  status: ('A' for Active; 'I' for Inactive)
REMARK    1  A    between atoms: O3_3  and  C5_11 
REMARK    2  A    between atoms: O4_4  and  C8_14 
REMARK    3  A    between atoms: O5_5  and  C10_16 
ROOT
HETATM    1  O1  UNK   900      30.956 -45.714 -63.082  1.00  0.00    -0.350 OA
HETATM    2  O2  UNK   900      32.120 -46.724 -64.934  1.00  0.00    -0.350 OA
HETATM    3  O6  UNK   900      35.199 -43.865 -65.346  1.00  0.00    -0.289 OA
HETATM    4  C1  UNK   900      30.888 -46.181 -64.440  1.00  0.00     0.170 C 
HETATM    5  C2  UNK   900      30.495 -44.985 -65.334  1.00  0.00     0.103 C 
HETATM    6  C3  UNK   900      29.789 -47.260 -64.556  1.00  0.00     0.100 C 
HETATM    7  C4  UNK   900      31.647 -44.042 -65.582  1.00  0.00    -0.060 C 
HETATM    8  C5  UNK   900      29.955 -48.381 -63.531  1.00  0.00     0.125 C 
HETATM    9  C6  UNK   900      31.285 -42.689 -66.130  1.00  0.00     0.070 C 
HETATM   10  C7  UNK   900      32.905 -44.437 -65.325  1.00  0.00     0.017 C 
HETATM   11  C8  UNK   900      33.710 -42.021 -65.819  1.00  0.00     0.145 C 
HETATM   12  C9  UNK   900      31.236 -46.739 -62.123  1.00  0.00     0.123 C 
HETATM   13  C10 UNK   900      32.485 -41.962 -66.738  1.00  0.00     0.164 C 
HETATM   14  C11 UNK   900      30.132 -47.798 -62.133  1.00  0.00     0.063 C 
HETATM   15  C12 UNK   900      33.228 -45.822 -64.845  1.00  0.00     0.214 C 
HETATM   16  C13 UNK   900      34.040 -43.478 -65.504  1.00  0.00     0.194 C 
HETATM   17  C14 UNK   900      34.913 -41.294 -66.420  1.00  0.00     0.057 C 
HETATM   18  C15 UNK   900      31.340 -46.071 -60.758  1.00  0.00     0.040 C 
ENDROOT
BRANCH   8  19
HETATM   19  O3  UNK   900      31.086 -49.175 -63.876  1.00  0.00    -0.395 OA
HETATM   20  H20 UNK   900      31.277 -49.021 -64.817  1.00  0.00     0.210 HD
ENDBRANCH   8  19
BRANCH  13  21
HETATM   21  O5  UNK   900      32.117 -40.612 -67.011  1.00  0.00    -0.392 OA
HETATM   22  H22 UNK   900      31.448 -40.352 -66.355  1.00  0.00     0.210 HD
ENDBRANCH  13  21
BRANCH  11  23
HETATM   23  O4  UNK   900      33.412 -41.446 -64.549  1.00  0.00    -0.379 OA
HETATM   24  H21 UNK   900      33.568 -40.488 -64.603  1.00  0.00     0.211 HD
ENDBRANCH  11  23
TORSDOF 3
ENDMDL
MODEL 6
REMARK VINA RESULT:      -6.1     30.595     34.145
REMARK  3 active torsions:
REMARK  status: ('A' for Active; 'I' for Inactive)
REMARK    1  A    between atoms: O3_3  and  C5_11 
REMARK    2  A    between atoms: O4_4  and  C8_14 
REMARK    3  A    between atoms: O5_5  and  C10_16 
ROOT
HETATM    1  O1  UNK   900       9.548 -27.343 -78.606  1.00  0.00    -0.350 OA
HETATM    2  O2  UNK   900      11.717 -26.513 -77.964  1.00  0.00    -0.350 OA
HETATM    3  O6  UNK   900      11.622 -22.864 -80.085  1.00  0.00    -0.289 OA
HETATM    4  C1  UNK   900      10.969 -27.565 -78.588  1.00  0.00     0.170 C 
HETATM    5  C2  UNK   900      11.448 -27.696 -80.050  1.00  0.00     0.103 C 
HETATM    6  C3  UNK   900      11.270 -28.890 -77.854  1.00  0.00     0.100 C 
HETATM    7  C4  UNK   900      11.537 -26.364 -80.753  1.00  0.00    -0.060 C 
HETATM    8  C5  UNK   900      10.622 -28.958 -76.472  1.00  0.00     0.125 C 
HETATM    9  C6  UNK   900      11.645 -26.417 -82.252  1.00  0.00     0.070 C 
HETATM   10  C7  UNK   900      11.530 -25.226 -80.039  1.00  0.00     0.017 C 
HETATM   11  C8  UNK   900      11.407 -23.893 -82.261  1.00  0.00     0.145 C 
HETATM   12  C9  UNK   900       8.948 -27.279 -77.309  1.00  0.00     0.123 C 
HETATM   13  C10 UNK   900      12.143 -25.100 -82.852  1.00  0.00     0.164 C 
HETATM   14  C11 UNK   900       9.142 -28.601 -76.563  1.00  0.00     0.063 C 
HETATM   15  C12 UNK   900      11.492 -25.222 -78.539  1.00  0.00     0.214 C 
HETATM   16  C13 UNK   900      11.547 -23.904 -80.741  1.00  0.00     0.194 C 
HETATM   17  C14 UNK   900      11.898 -22.574 -82.856  1.00  0.00     0.057 C 
HETATM   18  C15 UNK   900       7.469 -26.975 -77.504  1.00  0.00     0.040 C 
ENDROOT
BRANCH   8  19
HETATM   19  O3  UNK   900      11.289 -28.058 -75.592  1.00  0.00    -0.395 OA
HETATM   20  H20 UNK   900      10.624 -27.434 -75.252  1.00  0.00     0.210 HD
ENDBRANCH   8  19
BRANCH  13  21
HETATM   21  O5  UNK   900      11.989 -25.149 -84.267  1.00  0.00    -0.392 OA
HETATM   22  H22 UNK   900      11.037 -25.099 -84.461  1.00  0.00     0.210 HD
ENDBRANCH  13  21
BRANCH  11  23
HETATM   23  O4  UNK   900      10.003 -24.004 -82.485  1.00  0.00    -0.379 OA
HETATM   24  H21 UNK   900       9.863 -24.470 -83.326  1.00  0.00     0.211 HD
ENDBRANCH  11  23
TORSDOF 3
ENDMDL
MODEL 7
REMARK VINA RESULT:      -5.8     38.151     39.313
REMARK  3 active torsions:
REMARK  status: ('A' for Active; 'I' for Inactive)
REMARK    1  A    between atoms: O3_3  and  C5_11 
REMARK    2  A    between atoms: O4_4  and  C8_14 
REMARK    3  A    between atoms: O5_5  and  C10_16 
ROOT
HETATM    1  O1  UNK   900       8.079 -44.332 -96.238  1.00  0.00    -0.350 OA
HETATM    2  O2  UNK   900       9.673 -44.438 -94.435  1.00  0.00    -0.350 OA
HETATM    3  O6  UNK   900      12.930 -46.029 -96.599  1.00  0.00    -0.289 OA
HETATM    4  C1  UNK   900       8.392 -44.847 -94.933  1.00  0.00     0.170 C 
HETATM    5  C2  UNK   900       8.376 -46.389 -95.015  1.00  0.00     0.103 C 
HETATM    6  C3  UNK   900       7.305 -44.400 -93.931  1.00  0.00     0.100 C 
HETATM    7  C4  UNK   900       9.613 -46.949 -95.672  1.00  0.00    -0.060 C 
HETATM    8  C5  UNK   900       7.071 -42.890 -93.953  1.00  0.00     0.125 C 
HETATM    9  C6  UNK   900       9.533 -48.384 -96.115  1.00  0.00     0.070 C 
HETATM   10  C7  UNK   900      10.703 -46.176 -95.820  1.00  0.00     0.017 C 
HETATM   11  C8  UNK   900      11.792 -48.069 -97.221  1.00  0.00     0.145 C 
HETATM   12  C9  UNK   900       7.980 -42.906 -96.297  1.00  0.00     0.123 C 
HETATM   13  C10 UNK   900      10.910 -48.995 -96.377  1.00  0.00     0.164 C 
HETATM   14  C11 UNK   900       6.858 -42.408 -95.385  1.00  0.00     0.063 C 
HETATM   15  C12 UNK   900      10.764 -44.770 -95.300  1.00  0.00     0.214 C 
HETATM   16  C13 UNK   900      11.905 -46.709 -96.535  1.00  0.00     0.194 C 
HETATM   17  C14 UNK   900      13.170 -48.674 -97.488  1.00  0.00     0.057 C 
HETATM   18  C15 UNK   900       7.714 -42.525 -97.748  1.00  0.00     0.040 C 
ENDROOT
BRANCH   8  19
HETATM   19  O3  UNK   900       8.193 -42.228 -93.377  1.00  0.00    -0.395 OA
HETATM   20  H20 UNK   900       7.855 -41.498 -92.830  1.00  0.00     0.210 HD
ENDBRANCH   8  19
BRANCH  13  21
HETATM   21  O5  UNK   900      10.741 -50.259 -97.014  1.00  0.00    -0.392 OA
HETATM   22  H22 UNK   900      10.197 -50.812 -96.429  1.00  0.00     0.210 HD
ENDBRANCH  13  21
BRANCH  11  23
HETATM   23  O4  UNK   900      11.166 -47.781 -98.469  1.00  0.00    -0.379 OA
HETATM   24  H21 UNK   900      11.000 -46.824 -98.515  1.00  0.00     0.211 HD
ENDBRANCH  11  23
TORSDOF 3
ENDMDL
MODEL 8
REMARK VINA RESULT:      -5.8     30.375     33.025
REMARK  3 active torsions:
REMARK  status: ('A' for Active; 'I' for Inactive)
REMARK    1  A    between atoms: O3_3  and  C5_11 
REMARK    2  A    between atoms: O4_4  and  C8_14 
REMARK    3  A    between atoms: O5_5  and  C10_16 
ROOT
HETATM    1  O1  UNK   900      11.807 -25.980 -80.044  1.00  0.00    -0.350 OA
HETATM    2  O2  UNK   900       9.565 -26.743 -80.485  1.00  0.00    -0.350 OA
HETATM    3  O6  UNK   900       7.959 -26.167 -76.623  1.00  0.00    -0.289 OA
HETATM    4  C1  UNK   900      10.965 -27.057 -80.489  1.00  0.00     0.170 C 
HETATM    5  C2  UNK   900      11.192 -28.259 -79.548  1.00  0.00     0.103 C 
HETATM    6  C3  UNK   900      11.375 -27.471 -81.919  1.00  0.00     0.100 C 
HETATM    7  C4  UNK   900      10.497 -28.095 -78.218  1.00  0.00    -0.060 C 
HETATM    8  C5  UNK   900      11.418 -26.287 -82.885  1.00  0.00     0.125 C 
HETATM    9  C6  UNK   900      10.943 -29.025 -77.123  1.00  0.00     0.070 C 
HETATM   10  C7  UNK   900       9.535 -27.169 -78.073  1.00  0.00     0.017 C 
HETATM   11  C8  UNK   900       9.478 -27.700 -75.534  1.00  0.00     0.145 C 
HETATM   12  C9  UNK   900      11.760 -24.817 -80.875  1.00  0.00     0.123 C 
HETATM   13  C10 UNK   900       9.942 -29.094 -75.968  1.00  0.00     0.164 C 
HETATM   14  C11 UNK   900      12.239 -25.148 -82.289  1.00  0.00     0.063 C 
HETATM   15  C12 UNK   900       9.072 -26.310 -79.213  1.00  0.00     0.214 C 
HETATM   16  C13 UNK   900       8.896 -26.960 -76.736  1.00  0.00     0.194 C 
HETATM   17  C14 UNK   900       8.479 -27.761 -74.380  1.00  0.00     0.057 C 
HETATM   18  C15 UNK   900      12.648 -23.759 -80.232  1.00  0.00     0.040 C 
ENDROOT
BRANCH   8  19
HETATM   19  O3  UNK   900      10.090 -25.845 -83.152  1.00  0.00    -0.395 OA
HETATM   20  H20 UNK   900      10.006 -25.734 -84.115  1.00  0.00     0.210 HD
ENDBRANCH   8  19
BRANCH  13  21
HETATM   21  O5  UNK   900      10.539 -29.795 -74.881  1.00  0.00    -0.392 OA
HETATM   22  H22 UNK   900      10.123 -30.672 -74.833  1.00  0.00     0.210 HD
ENDBRANCH  13  21
BRANCH  11  23
HETATM   23  O4  UNK   900      10.592 -26.902 -75.138  1.00  0.00    -0.379 OA
HETATM   24  H21 UNK   900      10.660 -26.934 -74.168  1.00  0.00     0.211 HD
ENDBRANCH  11  23
TORSDOF 3
ENDMDL
MODEL 9
REMARK VINA RESULT:      -5.8      3.622      5.967
REMARK  3 active torsions:
REMARK  status: ('A' for Active; 'I' for Inactive)
REMARK    1  A    between atoms: O3_3  and  C5_11 
REMARK    2  A    between atoms: O4_4  and  C8_14 
REMARK    3  A    between atoms: O5_5  and  C10_16 
ROOT
HETATM    1  O1  UNK   900      32.427 -48.656 -60.763  1.00  0.00    -0.350 OA
HETATM    2  O2  UNK   900      32.346 -47.771 -63.002  1.00  0.00    -0.350 OA
HETATM    3  O6  UNK   900      36.290 -46.278 -63.206  1.00  0.00    -0.289 OA
HETATM    4  C1  UNK   900      31.788 -47.753 -61.681  1.00  0.00     0.170 C 
HETATM    5  C2  UNK   900      31.930 -46.323 -61.117  1.00  0.00     0.103 C 
HETATM    6  C3  UNK   900      30.285 -48.095 -61.774  1.00  0.00     0.100 C 
HETATM    7  C4  UNK   900      33.312 -45.753 -61.319  1.00  0.00    -0.060 C 
HETATM    8  C5  UNK   900      30.035 -49.569 -62.092  1.00  0.00     0.125 C 
HETATM    9  C6  UNK   900      33.648 -44.534 -60.504  1.00  0.00     0.070 C 
HETATM   10  C7  UNK   900      34.152 -46.326 -62.196  1.00  0.00     0.017 C 
HETATM   11  C8  UNK   900      36.023 -44.729 -61.369  1.00  0.00     0.145 C 
HETATM   12  C9  UNK   900      32.307 -50.036 -61.119  1.00  0.00     0.123 C 
HETATM   13  C10 UNK   900      34.863 -43.781 -61.048  1.00  0.00     0.164 C 
HETATM   14  C11 UNK   900      30.837 -50.458 -61.144  1.00  0.00     0.063 C 
HETATM   15  C12 UNK   900      33.751 -47.499 -63.041  1.00  0.00     0.214 C 
HETATM   16  C13 UNK   900      35.547 -45.803 -62.345  1.00  0.00     0.194 C 
HETATM   17  C14 UNK   900      37.241 -43.983 -61.913  1.00  0.00     0.057 C 
HETATM   18  C15 UNK   900      33.088 -50.844 -60.091  1.00  0.00     0.040 C 
ENDROOT
BRANCH   8  19
HETATM   19  O3  UNK   900      30.409 -49.832 -63.441  1.00  0.00    -0.395 OA
HETATM   20  H20 UNK   900      30.422 -48.982 -63.913  1.00  0.00     0.210 HD
ENDBRANCH   8  19
BRANCH  13  21
HETATM   21  O5  UNK   900      35.259 -42.795 -60.099  1.00  0.00    -0.392 OA
HETATM   22  H22 UNK   900      35.412 -43.247 -59.252  1.00  0.00     0.210 HD
ENDBRANCH  13  21
BRANCH  11  23
HETATM   23  O4  UNK   900      36.410 -45.459 -60.207  1.00  0.00    -0.379 OA
HETATM   24  H21 UNK   900      36.553 -46.386 -60.462  1.00  0.00     0.211 HD
ENDBRANCH  11  23
TORSDOF 3
ENDMDL
