MODEL 1
REMARK VINA RESULT:      -6.1      0.000      0.000
REMARK  10 active torsions:
REMARK  status: ('A' for Active; 'I' for Inactive)
REMARK    1  A    between atoms: O1_1  and  C1_6 
REMARK    2  A    between atoms: O2_2  and  C2_7 
REMARK    3  A    between atoms: O3_3  and  C3_8 
REMARK    4  A    between atoms: O4_4  and  C5_10 
REMARK    5  A    between atoms: O5_5  and  C8_13 
REMARK    6  A    between atoms: C1_6  and  C2_7 
REMARK    7  A    between atoms: C1_6  and  C3_8 
REMARK    8  A    between atoms: C2_7  and  C4_9 
REMARK    9  A    between atoms: C3_8  and  C5_10 
REMARK   10  A    between atoms: C5_10  and  C8_13 
ROOT
HETATM    1  C1  UNK   900      22.037 -34.010 -67.512  1.00  0.00     0.178 C 
ENDROOT
BRANCH   1   2
HETATM    2  O1  UNK   900      21.142 -32.918 -67.759  1.00  0.00    -0.390 OA
HETATM    3  H14 UNK   900      20.867 -32.961 -68.689  1.00  0.00     0.210 HD
ENDBRANCH   1   2
BRANCH   1   4
HETATM    4  C2  UNK   900      23.442 -33.445 -67.215  1.00  0.00     0.152 C 
BRANCH   4   5
HETATM    5  O2  UNK   900      23.613 -32.222 -67.937  1.00  0.00    -0.393 OA
HETATM    6  H15 UNK   900      23.992 -32.442 -68.805  1.00  0.00     0.210 HD
ENDBRANCH   4   5
BRANCH   4   7
HETATM    7  C4  UNK   900      24.604 -34.389 -67.611  1.00  0.00     0.009 C 
HETATM    8  C6  UNK   900      24.988 -35.298 -66.433  1.00  0.00     0.012 C 
HETATM    9  C7  UNK   900      25.843 -33.629 -68.086  1.00  0.00     0.012 C 
ENDBRANCH   4   7
ENDBRANCH   1   4
BRANCH   1  10
HETATM   10  C3  UNK   900      21.952 -34.969 -68.716  1.00  0.00     0.180 C 
BRANCH  10  11
HETATM   11  O3  UNK   900      21.871 -34.182 -69.912  1.00  0.00    -0.390 OA
HETATM   12  H16 UNK   900      21.089 -33.609 -69.834  1.00  0.00     0.210 HD
ENDBRANCH  10  11
BRANCH  10  13
HETATM   13  C5  UNK   900      20.780 -35.969 -68.671  1.00  0.00     0.173 C 
BRANCH  13  14
HETATM   14  O4  UNK   900      19.569 -35.252 -68.416  1.00  0.00    -0.391 OA
HETATM   15  H17 UNK   900      19.183 -35.012 -69.275  1.00  0.00     0.210 HD
ENDBRANCH  13  14
BRANCH  13  16
HETATM   16  C8  UNK   900      20.887 -37.086 -67.631  1.00  0.00     0.198 C 
BRANCH  16  17
HETATM   17  O5  UNK   900      19.691 -37.201 -66.874  1.00  0.00    -0.398 OA
HETATM   18  H18 UNK   900      19.268 -36.325 -66.871  1.00  0.00     0.209 HD
ENDBRANCH  16  17
ENDBRANCH  13  16
ENDBRANCH  10  13
ENDBRANCH   1  10
TORSDOF 10
ENDMDL
MODEL 2
REMARK VINA RESULT:      -4.9      1.567      4.307
REMARK  10 active torsions:
REMARK  status: ('A' for Active; 'I' for Inactive)
REMARK    1  A    between atoms: O1_1  and  C1_6 
REMARK    2  A    between atoms: O2_2  and  C2_7 
REMARK    3  A    between atoms: O3_3  and  C3_8 
REMARK    4  A    between atoms: O4_4  and  C5_10 
REMARK    5  A    between atoms: O5_5  and  C8_13 
REMARK    6  A    between atoms: C1_6  and  C2_7 
REMARK    7  A    between atoms: C1_6  and  C3_8 
REMARK    8  A    between atoms: C2_7  and  C4_9 
REMARK    9  A    between atoms: C3_8  and  C5_10 
REMARK   10  A    between atoms: C5_10  and  C8_13 
ROOT
HETATM    1  C1  UNK   900      22.074 -36.004 -68.361  1.00  0.00     0.178 C 
ENDROOT
BRANCH   1   2
HETATM    2  O1  UNK   900      21.716 -35.744 -69.724  1.00  0.00    -0.390 OA
HETATM    3  H14 UNK   900      21.495 -34.802 -69.801  1.00  0.00     0.210 HD
ENDBRANCH   1   2
BRANCH   1   4
HETATM    4  C2  UNK   900      21.266 -37.219 -67.857  1.00  0.00     0.152 C 
BRANCH   4   5
HETATM    5  O2  UNK   900      20.026 -36.759 -67.311  1.00  0.00    -0.393 OA
HETATM    6  H15 UNK   900      19.320 -37.011 -67.930  1.00  0.00     0.210 HD
ENDBRANCH   4   5
BRANCH   4   7
HETATM    7  C4  UNK   900      21.981 -38.049 -66.763  1.00  0.00     0.009 C 
HETATM    8  C6  UNK   900      21.445 -37.685 -65.370  1.00  0.00     0.012 C 
HETATM    9  C7  UNK   900      23.500 -37.863 -66.783  1.00  0.00     0.012 C 
ENDBRANCH   4   7
ENDBRANCH   1   4
BRANCH   1  10
HETATM   10  C3  UNK   900      21.868 -34.699 -67.564  1.00  0.00     0.180 C 
BRANCH  10  11
HETATM   11  O3  UNK   900      20.658 -34.080 -68.021  1.00  0.00    -0.390 OA
HETATM   12  H16 UNK   900      20.659 -34.115 -68.993  1.00  0.00     0.210 HD
ENDBRANCH  10  11
BRANCH  10  13
HETATM   13  C5  UNK   900      23.033 -33.693 -67.651  1.00  0.00     0.173 C 
BRANCH  13  14
HETATM   14  O4  UNK   900      23.375 -33.499 -69.026  1.00  0.00    -0.391 OA
HETATM   15  H17 UNK   900      23.010 -32.641 -69.301  1.00  0.00     0.210 HD
ENDBRANCH  13  14
BRANCH  13  16
HETATM   16  C8  UNK   900      24.311 -34.077 -66.902  1.00  0.00     0.198 C 
BRANCH  16  17
HETATM   17  O5  UNK   900      25.371 -33.179 -67.201  1.00  0.00    -0.398 OA
HETATM   18  H18 UNK   900      25.688 -32.819 -66.355  1.00  0.00     0.209 HD
ENDBRANCH  16  17
ENDBRANCH  13  16
ENDBRANCH  10  13
ENDBRANCH   1  10
TORSDOF 10
ENDMDL
MODEL 3
REMARK VINA RESULT:      -4.9     12.786     14.395
REMARK  10 active torsions:
REMARK  status: ('A' for Active; 'I' for Inactive)
REMARK    1  A    between atoms: O1_1  and  C1_6 
REMARK    2  A    between atoms: O2_2  and  C2_7 
REMARK    3  A    between atoms: O3_3  and  C3_8 
REMARK    4  A    between atoms: O4_4  and  C5_10 
REMARK    5  A    between atoms: O5_5  and  C8_13 
REMARK    6  A    between atoms: C1_6  and  C2_7 
REMARK    7  A    between atoms: C1_6  and  C3_8 
REMARK    8  A    between atoms: C2_7  and  C4_9 
REMARK    9  A    between atoms: C3_8  and  C5_10 
REMARK   10  A    between atoms: C5_10  and  C8_13 
ROOT
HETATM    1  C1  UNK   900      23.387 -21.885 -73.810  1.00  0.00     0.178 C 
ENDROOT
BRANCH   1   2
HETATM    2  O1  UNK   900      22.534 -21.250 -72.849  1.00  0.00    -0.390 OA
HETATM    3  H14 UNK   900      23.082 -20.988 -72.091  1.00  0.00     0.210 HD
ENDBRANCH   1   2
BRANCH   1   4
HETATM    4  C2  UNK   900      22.543 -22.282 -75.039  1.00  0.00     0.152 C 
BRANCH   4   5
HETATM    5  O2  UNK   900      21.539 -23.216 -74.632  1.00  0.00    -0.393 OA
HETATM    6  H15 UNK   900      21.975 -24.073 -74.488  1.00  0.00     0.210 HD
ENDBRANCH   4   5
BRANCH   4   7
HETATM    7  C4  UNK   900      23.355 -22.935 -76.185  1.00  0.00     0.009 C 
HETATM    8  C6  UNK   900      23.231 -22.110 -77.474  1.00  0.00     0.012 C 
HETATM    9  C7  UNK   900      22.922 -24.376 -76.464  1.00  0.00     0.012 C 
ENDBRANCH   4   7
ENDBRANCH   1   4
BRANCH   1  10
HETATM   10  C3  UNK   900      24.109 -23.049 -73.102  1.00  0.00     0.180 C 
BRANCH  10  11
HETATM   11  O3  UNK   900      23.403 -23.342 -71.888  1.00  0.00    -0.390 OA
HETATM   12  H16 UNK   900      23.100 -22.498 -71.513  1.00  0.00     0.210 HD
ENDBRANCH  10  11
BRANCH  10  13
HETATM   13  C5  UNK   900      25.598 -22.800 -72.791  1.00  0.00     0.173 C 
BRANCH  13  14
HETATM   14  O4  UNK   900      25.731 -21.524 -72.158  1.00  0.00    -0.391 OA
HETATM   15  H17 UNK   900      24.867 -21.293 -71.779  1.00  0.00     0.210 HD
ENDBRANCH  13  14
BRANCH  13  16
HETATM   16  C8  UNK   900      26.550 -22.827 -73.988  1.00  0.00     0.198 C 
BRANCH  16  17
HETATM   17  O5  UNK   900      27.804 -22.248 -73.662  1.00  0.00    -0.398 OA
HETATM   18  H18 UNK   900      27.635 -21.543 -73.014  1.00  0.00     0.209 HD
ENDBRANCH  16  17
ENDBRANCH  13  16
ENDBRANCH  10  13
ENDBRANCH   1  10
TORSDOF 10
ENDMDL
MODEL 4
REMARK VINA RESULT:      -4.7     38.829     40.830
REMARK  10 active torsions:
REMARK  status: ('A' for Active; 'I' for Inactive)
REMARK    1  A    between atoms: O1_1  and  C1_6 
REMARK    2  A    between atoms: O2_2  and  C2_7 
REMARK    3  A    between atoms: O3_3  and  C3_8 
REMARK    4  A    between atoms: O4_4  and  C5_10 
REMARK    5  A    between atoms: O5_5  and  C8_13 
REMARK    6  A    between atoms: C1_6  and  C2_7 
REMARK    7  A    between atoms: C1_6  and  C3_8 
REMARK    8  A    between atoms: C2_7  and  C4_9 
REMARK    9  A    between atoms: C3_8  and  C5_10 
REMARK   10  A    between atoms: C5_10  and  C8_13 
ROOT
HETATM    1  C1  UNK   900       7.945 -67.180 -48.815  1.00  0.00     0.178 C 
ENDROOT
BRANCH   1   2
HETATM    2  O1  UNK   900       9.078 -66.492 -48.271  1.00  0.00    -0.390 OA
HETATM    3  H14 UNK   900       8.946 -65.540 -48.412  1.00  0.00     0.210 HD
ENDBRANCH   1   2
BRANCH   1   4
HETATM    4  C2  UNK   900       7.592 -66.555 -50.182  1.00  0.00     0.152 C 
BRANCH   4   5
HETATM    5  O2  UNK   900       6.213 -66.177 -50.178  1.00  0.00    -0.393 OA
HETATM    6  H15 UNK   900       5.794 -66.581 -50.956  1.00  0.00     0.210 HD
ENDBRANCH   4   5
BRANCH   4   7
HETATM    7  C4  UNK   900       7.816 -67.499 -51.390  1.00  0.00     0.009 C 
HETATM    8  C6  UNK   900       8.836 -66.895 -52.366  1.00  0.00     0.012 C 
HETATM    9  C7  UNK   900       6.520 -67.808 -52.141  1.00  0.00     0.012 C 
ENDBRANCH   4   7
ENDBRANCH   1   4
BRANCH   1  10
HETATM   10  C3  UNK   900       6.819 -67.140 -47.762  1.00  0.00     0.180 C 
BRANCH  10  11
HETATM   11  O3  UNK   900       6.604 -65.772 -47.387  1.00  0.00    -0.390 OA
HETATM   12  H16 UNK   900       7.361 -65.493 -46.845  1.00  0.00     0.210 HD
ENDBRANCH  10  11
BRANCH  10  13
HETATM   13  C5  UNK   900       7.077 -67.990 -46.502  1.00  0.00     0.173 C 
BRANCH  13  14
HETATM   14  O4  UNK   900       7.795 -67.202 -45.550  1.00  0.00    -0.391 OA
HETATM   15  H17 UNK   900       7.145 -66.685 -45.046  1.00  0.00     0.210 HD
ENDBRANCH  13  14
BRANCH  13  16
HETATM   16  C8  UNK   900       7.856 -69.289 -46.714  1.00  0.00     0.198 C 
BRANCH  16  17
HETATM   17  O5  UNK   900       8.937 -69.396 -45.800  1.00  0.00    -0.398 OA
HETATM   18  H18 UNK   900       8.612 -69.889 -45.027  1.00  0.00     0.209 HD
ENDBRANCH  16  17
ENDBRANCH  13  16
ENDBRANCH  10  13
ENDBRANCH   1  10
TORSDOF 10
ENDMDL
MODEL 5
REMARK VINA RESULT:      -4.6      1.989      4.756
REMARK  10 active torsions:
REMARK  status: ('A' for Active; 'I' for Inactive)
REMARK    1  A    between atoms: O1_1  and  C1_6 
REMARK    2  A    between atoms: O2_2  and  C2_7 
REMARK    3  A    between atoms: O3_3  and  C3_8 
REMARK    4  A    between atoms: O4_4  and  C5_10 
REMARK    5  A    between atoms: O5_5  and  C8_13 
REMARK    6  A    between atoms: C1_6  and  C2_7 
REMARK    7  A    between atoms: C1_6  and  C3_8 
REMARK    8  A    between atoms: C2_7  and  C4_9 
REMARK    9  A    between atoms: C3_8  and  C5_10 
REMARK   10  A    between atoms: C5_10  and  C8_13 
ROOT
HETATM    1  C1  UNK   900      22.000 -35.186 -69.141  1.00  0.00     0.178 C 
ENDROOT
BRANCH   1   2
HETATM    2  O1  UNK   900      21.413 -33.921 -68.811  1.00  0.00    -0.390 OA
HETATM    3  H14 UNK   900      22.041 -33.438 -68.249  1.00  0.00     0.210 HD
ENDBRANCH   1   2
BRANCH   1   4
HETATM    4  C2  UNK   900      20.982 -36.303 -68.830  1.00  0.00     0.152 C 
BRANCH   4   5
HETATM    5  O2  UNK   900      20.505 -36.139 -67.492  1.00  0.00    -0.393 OA
HETATM    6  H15 UNK   900      21.272 -36.183 -66.897  1.00  0.00     0.210 HD
ENDBRANCH   4   5
BRANCH   4   7
HETATM    7  C4  UNK   900      21.555 -37.737 -68.951  1.00  0.00     0.009 C 
HETATM    8  C6  UNK   900      21.599 -38.181 -70.421  1.00  0.00     0.012 C 
HETATM    9  C7  UNK   900      20.755 -38.759 -68.140  1.00  0.00     0.012 C 
ENDBRANCH   4   7
ENDBRANCH   1   4
BRANCH   1  10
HETATM   10  C3  UNK   900      23.344 -35.291 -68.392  1.00  0.00     0.180 C 
BRANCH  10  11
HETATM   11  O3  UNK   900      23.073 -35.301 -66.983  1.00  0.00    -0.390 OA
HETATM   12  H16 UNK   900      22.872 -36.217 -66.729  1.00  0.00     0.210 HD
ENDBRANCH  10  11
BRANCH  10  13
HETATM   13  C5  UNK   900      24.360 -34.179 -68.718  1.00  0.00     0.173 C 
BRANCH  13  14
HETATM   14  O4  UNK   900      24.205 -33.798 -70.087  1.00  0.00    -0.391 OA
HETATM   15  H17 UNK   900      23.253 -33.748 -70.273  1.00  0.00     0.210 HD
ENDBRANCH  13  14
BRANCH  13  16
HETATM   16  C8  UNK   900      25.833 -34.526 -68.494  1.00  0.00     0.198 C 
BRANCH  16  17
HETATM   17  O5  UNK   900      26.126 -34.660 -67.111  1.00  0.00    -0.398 OA
HETATM   18  H18 UNK   900      26.746 -33.947 -66.879  1.00  0.00     0.209 HD
ENDBRANCH  16  17
ENDBRANCH  13  16
ENDBRANCH  10  13
ENDBRANCH   1  10
TORSDOF 10
ENDMDL
MODEL 6
REMARK VINA RESULT:      -4.4     13.127     14.799
REMARK  10 active torsions:
REMARK  status: ('A' for Active; 'I' for Inactive)
REMARK    1  A    between atoms: O1_1  and  C1_6 
REMARK    2  A    between atoms: O2_2  and  C2_7 
REMARK    3  A    between atoms: O3_3  and  C3_8 
REMARK    4  A    between atoms: O4_4  and  C5_10 
REMARK    5  A    between atoms: O5_5  and  C8_13 
REMARK    6  A    between atoms: C1_6  and  C2_7 
REMARK    7  A    between atoms: C1_6  and  C3_8 
REMARK    8  A    between atoms: C2_7  and  C4_9 
REMARK    9  A    between atoms: C3_8  and  C5_10 
REMARK   10  A    between atoms: C5_10  and  C8_13 
ROOT
HETATM    1  C1  UNK   900      23.175 -21.516 -74.600  1.00  0.00     0.178 C 
ENDROOT
BRANCH   1   2
HETATM    2  O1  UNK   900      22.224 -20.448 -74.691  1.00  0.00    -0.390 OA
HETATM    3  H14 UNK   900      21.578 -20.561 -73.975  1.00  0.00     0.210 HD
ENDBRANCH   1   2
BRANCH   1   4
HETATM    4  C2  UNK   900      22.605 -22.754 -75.324  1.00  0.00     0.152 C 
BRANCH   4   5
HETATM    5  O2  UNK   900      21.411 -23.174 -74.657  1.00  0.00    -0.393 OA
HETATM    6  H15 UNK   900      21.393 -22.745 -73.785  1.00  0.00     0.210 HD
ENDBRANCH   4   5
BRANCH   4   7
HETATM    7  C4  UNK   900      23.568 -23.966 -75.368  1.00  0.00     0.009 C 
HETATM    8  C6  UNK   900      24.949 -23.541 -75.888  1.00  0.00     0.012 C 
HETATM    9  C7  UNK   900      23.033 -25.110 -76.232  1.00  0.00     0.012 C 
ENDBRANCH   4   7
ENDBRANCH   1   4
BRANCH   1  10
HETATM   10  C3  UNK   900      23.511 -21.721 -73.108  1.00  0.00     0.180 C 
BRANCH  10  11
HETATM   11  O3  UNK   900      22.353 -21.375 -72.337  1.00  0.00    -0.390 OA
HETATM   12  H16 UNK   900      22.564 -21.536 -71.402  1.00  0.00     0.210 HD
ENDBRANCH  10  11
BRANCH  10  13
HETATM   13  C5  UNK   900      24.731 -20.928 -72.601  1.00  0.00     0.173 C 
BRANCH  13  14
HETATM   14  O4  UNK   900      25.504 -21.769 -71.740  1.00  0.00    -0.391 OA
HETATM   15  H17 UNK   900      26.415 -21.777 -72.079  1.00  0.00     0.210 HD
ENDBRANCH  13  14
BRANCH  13  16
HETATM   16  C8  UNK   900      24.425 -19.637 -71.839  1.00  0.00     0.198 C 
BRANCH  16  17
HETATM   17  O5  UNK   900      23.682 -18.731 -72.640  1.00  0.00    -0.398 OA
HETATM   18  H18 UNK   900      24.313 -18.288 -73.233  1.00  0.00     0.209 HD
ENDBRANCH  16  17
ENDBRANCH  13  16
ENDBRANCH  10  13
ENDBRANCH   1  10
TORSDOF 10
ENDMDL
MODEL 7
REMARK VINA RESULT:      -4.4     38.618     39.812
REMARK  10 active torsions:
REMARK  status: ('A' for Active; 'I' for Inactive)
REMARK    1  A    between atoms: O1_1  and  C1_6 
REMARK    2  A    between atoms: O2_2  and  C2_7 
REMARK    3  A    between atoms: O3_3  and  C3_8 
REMARK    4  A    between atoms: O4_4  and  C5_10 
REMARK    5  A    between atoms: O5_5  and  C8_13 
REMARK    6  A    between atoms: C1_6  and  C2_7 
REMARK    7  A    between atoms: C1_6  and  C3_8 
REMARK    8  A    between atoms: C2_7  and  C4_9 
REMARK    9  A    between atoms: C3_8  and  C5_10 
REMARK   10  A    between atoms: C5_10  and  C8_13 
ROOT
HETATM    1  C1  UNK   900       7.011 -67.142 -51.164  1.00  0.00     0.178 C 
ENDROOT
BRANCH   1   2
HETATM    2  O1  UNK   900       7.860 -67.761 -52.138  1.00  0.00    -0.390 OA
HETATM    3  H14 UNK   900       7.399 -67.742 -52.993  1.00  0.00     0.210 HD
ENDBRANCH   1   2
BRANCH   1   4
HETATM    4  C2  UNK   900       6.067 -66.155 -51.882  1.00  0.00     0.152 C 
BRANCH   4   5
HETATM    5  O2  UNK   900       6.330 -64.831 -51.407  1.00  0.00    -0.393 OA
HETATM    6  H15 UNK   900       7.160 -64.531 -51.813  1.00  0.00     0.210 HD
ENDBRANCH   4   5
BRANCH   4   7
HETATM    7  C4  UNK   900       4.561 -66.440 -51.665  1.00  0.00     0.009 C 
HETATM    8  C6  UNK   900       3.708 -65.275 -52.187  1.00  0.00     0.012 C 
HETATM    9  C7  UNK   900       4.218 -66.698 -50.196  1.00  0.00     0.012 C 
ENDBRANCH   4   7
ENDBRANCH   1   4
BRANCH   1  10
HETATM   10  C3  UNK   900       7.913 -66.521 -50.079  1.00  0.00     0.180 C 
BRANCH  10  11
HETATM   11  O3  UNK   900       9.112 -66.049 -50.709  1.00  0.00    -0.390 OA
HETATM   12  H16 UNK   900       9.786 -65.943 -50.016  1.00  0.00     0.210 HD
ENDBRANCH  10  11
BRANCH  10  13
HETATM   13  C5  UNK   900       8.275 -67.465 -48.915  1.00  0.00     0.173 C 
BRANCH  13  14
HETATM   14  O4  UNK   900       8.367 -66.700 -47.710  1.00  0.00    -0.391 OA
HETATM   15  H17 UNK   900       8.059 -67.263 -46.980  1.00  0.00     0.210 HD
ENDBRANCH  13  14
BRANCH  13  16
HETATM   16  C8  UNK   900       9.577 -68.253 -49.067  1.00  0.00     0.198 C 
BRANCH  16  17
HETATM   17  O5  UNK   900       9.501 -69.170 -50.148  1.00  0.00    -0.398 OA
HETATM   18  H18 UNK   900      10.383 -69.566 -50.252  1.00  0.00     0.209 HD
ENDBRANCH  16  17
ENDBRANCH  13  16
ENDBRANCH  10  13
ENDBRANCH   1  10
TORSDOF 10
ENDMDL
MODEL 8
REMARK VINA RESULT:      -4.4     38.563     39.916
REMARK  10 active torsions:
REMARK  status: ('A' for Active; 'I' for Inactive)
REMARK    1  A    between atoms: O1_1  and  C1_6 
REMARK    2  A    between atoms: O2_2  and  C2_7 
REMARK    3  A    between atoms: O3_3  and  C3_8 
REMARK    4  A    between atoms: O4_4  and  C5_10 
REMARK    5  A    between atoms: O5_5  and  C8_13 
REMARK    6  A    between atoms: C1_6  and  C2_7 
REMARK    7  A    between atoms: C1_6  and  C3_8 
REMARK    8  A    between atoms: C2_7  and  C4_9 
REMARK    9  A    between atoms: C3_8  and  C5_10 
REMARK   10  A    between atoms: C5_10  and  C8_13 
ROOT
HETATM    1  C1  UNK   900       7.186 -67.089 -50.995  1.00  0.00     0.178 C 
ENDROOT
BRANCH   1   2
HETATM    2  O1  UNK   900       8.204 -67.561 -51.887  1.00  0.00    -0.390 OA
HETATM    3  H14 UNK   900       8.724 -66.795 -52.180  1.00  0.00     0.210 HD
ENDBRANCH   1   2
BRANCH   1   4
HETATM    4  C2  UNK   900       6.217 -66.181 -51.782  1.00  0.00     0.152 C 
BRANCH   4   5
HETATM    5  O2  UNK   900       6.537 -64.814 -51.510  1.00  0.00    -0.393 OA
HETATM    6  H15 UNK   900       6.573 -64.344 -52.359  1.00  0.00     0.210 HD
ENDBRANCH   4   5
BRANCH   4   7
HETATM    7  C4  UNK   900       4.723 -66.391 -51.434  1.00  0.00     0.009 C 
HETATM    8  C6  UNK   900       4.283 -67.822 -51.778  1.00  0.00     0.012 C 
HETATM    9  C7  UNK   900       3.808 -65.396 -52.150  1.00  0.00     0.012 C 
ENDBRANCH   4   7
ENDBRANCH   1   4
BRANCH   1  10
HETATM   10  C3  UNK   900       7.885 -66.423 -49.793  1.00  0.00     0.180 C 
BRANCH  10  11
HETATM   11  O3  UNK   900       9.122 -65.858 -50.250  1.00  0.00    -0.390 OA
HETATM   12  H16 UNK   900       9.408 -65.203 -49.592  1.00  0.00     0.210 HD
ENDBRANCH  10  11
BRANCH  10  13
HETATM   13  C5  UNK   900       8.150 -67.355 -48.595  1.00  0.00     0.173 C 
BRANCH  13  14
HETATM   14  O4  UNK   900       7.962 -68.710 -49.013  1.00  0.00    -0.391 OA
HETATM   15  H17 UNK   900       7.101 -69.005 -48.671  1.00  0.00     0.210 HD
ENDBRANCH  13  14
BRANCH  13  16
HETATM   16  C8  UNK   900       7.282 -67.124 -47.357  1.00  0.00     0.198 C 
BRANCH  16  17
HETATM   17  O5  UNK   900       6.663 -65.846 -47.394  1.00  0.00    -0.398 OA
HETATM   18  H18 UNK   900       5.701 -65.993 -47.392  1.00  0.00     0.209 HD
ENDBRANCH  16  17
ENDBRANCH  13  16
ENDBRANCH  10  13
ENDBRANCH   1  10
TORSDOF 10
ENDMDL
MODEL 9
REMARK VINA RESULT:      -4.3     38.405     40.719
REMARK  10 active torsions:
REMARK  status: ('A' for Active; 'I' for Inactive)
REMARK    1  A    between atoms: O1_1  and  C1_6 
REMARK    2  A    between atoms: O2_2  and  C2_7 
REMARK    3  A    between atoms: O3_3  and  C3_8 
REMARK    4  A    between atoms: O4_4  and  C5_10 
REMARK    5  A    between atoms: O5_5  and  C8_13 
REMARK    6  A    between atoms: C1_6  and  C2_7 
REMARK    7  A    between atoms: C1_6  and  C3_8 
REMARK    8  A    between atoms: C2_7  and  C4_9 
REMARK    9  A    between atoms: C3_8  and  C5_10 
REMARK   10  A    between atoms: C5_10  and  C8_13 
ROOT
HETATM    1  C1  UNK   900       8.624 -68.770 -49.892  1.00  0.00     0.178 C 
ENDROOT
BRANCH   1   2
HETATM    2  O1  UNK   900       8.700 -69.716 -50.966  1.00  0.00    -0.390 OA
HETATM    3  H14 UNK   900       7.831 -70.141 -51.053  1.00  0.00     0.210 HD
ENDBRANCH   1   2
BRANCH   1   4
HETATM    4  C2  UNK   900       8.882 -67.357 -50.455  1.00  0.00     0.152 C 
BRANCH   4   5
HETATM    5  O2  UNK   900       8.416 -66.388 -49.511  1.00  0.00    -0.393 OA
HETATM    6  H15 UNK   900       9.194 -65.972 -49.105  1.00  0.00     0.210 HD
ENDBRANCH   4   5
BRANCH   4   7
HETATM    7  C4  UNK   900       8.180 -67.071 -51.805  1.00  0.00     0.009 C 
HETATM    8  C6  UNK   900       9.209 -66.694 -52.882  1.00  0.00     0.012 C 
HETATM    9  C7  UNK   900       7.131 -65.962 -51.699  1.00  0.00     0.012 C 
ENDBRANCH   4   7
ENDBRANCH   1   4
BRANCH   1  10
HETATM   10  C3  UNK   900       9.601 -69.230 -48.791  1.00  0.00     0.180 C 
BRANCH  10  11
HETATM   11  O3  UNK   900      10.528 -68.164 -48.540  1.00  0.00    -0.390 OA
HETATM   12  H16 UNK   900      10.814 -67.815 -49.401  1.00  0.00     0.210 HD
ENDBRANCH  10  11
BRANCH  10  13
HETATM   13  C5  UNK   900      10.372 -70.527 -49.104  1.00  0.00     0.173 C 
BRANCH  13  14
HETATM   14  O4  UNK   900       9.472 -71.634 -49.014  1.00  0.00    -0.391 OA
HETATM   15  H17 UNK   900       8.578 -71.276 -48.880  1.00  0.00     0.210 HD
ENDBRANCH  13  14
BRANCH  13  16
HETATM   16  C8  UNK   900      11.574 -70.829 -48.207  1.00  0.00     0.198 C 
BRANCH  16  17
HETATM   17  O5  UNK   900      12.662 -69.964 -48.497  1.00  0.00    -0.398 OA
HETATM   18  H18 UNK   900      13.286 -70.029 -47.753  1.00  0.00     0.209 HD
ENDBRANCH  16  17
ENDBRANCH  13  16
ENDBRANCH  10  13
ENDBRANCH   1  10
TORSDOF 10
ENDMDL
