MODEL 1
REMARK VINA RESULT:      -5.0      0.000      0.000
REMARK  8 active torsions:
REMARK  status: ('A' for Active; 'I' for Inactive)
REMARK    1  A    between atoms: O1_1  and  C3_6 
REMARK    2  A    between atoms: O3_3  and  C8_11 
REMARK    3  A    between atoms: C1_4  and  C3_6 
REMARK    4  A    between atoms: C2_5  and  C4_7 
REMARK    5  A    between atoms: C3_6  and  C9_12 
REMARK    6  A    between atoms: C4_7  and  C8_11 
REMARK    7  A    between atoms: C8_11  and  C10_13 
REMARK    8  A    between atoms: C9_12  and  C11_14 
ROOT
HETATM    1  O2  UNK   900      25.915 -24.681 -76.400  1.00  0.00    -0.292 OA
HETATM    2  C1  UNK   900      25.563 -23.200 -74.511  1.00  0.00     0.096 A 
HETATM    3  C2  UNK   900      24.219 -22.832 -73.856  1.00  0.00     0.025 A 
HETATM    4  C5  UNK   900      25.150 -24.159 -75.603  1.00  0.00     0.162 A 
HETATM    5  C6  UNK   900      23.208 -23.644 -74.613  1.00  0.00    -0.011 A 
HETATM    6  C7  UNK   900      23.697 -24.400 -75.599  1.00  0.00    -0.019 A 
HETATM    7  C12 UNK   900      23.004 -25.303 -76.540  1.00  0.00     0.052 C 
ENDROOT
BRANCH   2   8
HETATM    8  C3  UNK   900      26.283 -21.993 -75.093  1.00  0.00     0.130 C 
BRANCH   8   9
HETATM    9  O1  UNK   900      27.294 -22.450 -75.989  1.00  0.00    -0.395 OA
HETATM   10  H17 UNK   900      27.704 -21.666 -76.394  1.00  0.00     0.210 HD
ENDBRANCH   8   9
BRANCH   8  11
HETATM   11  C9  UNK   900      25.315 -21.057 -75.826  1.00  0.00     0.032 C 
BRANCH  11  12
HETATM   12  C11 UNK   900      25.433 -21.180 -77.348  1.00  0.00    -0.002 C 
HETATM   13  C14 UNK   900      24.089 -21.490 -77.986  1.00  0.00     0.005 C 
ENDBRANCH  11  12
ENDBRANCH   8  11
ENDBRANCH   2   8
BRANCH   3  14
HETATM   14  C4  UNK   900      24.197 -23.170 -72.368  1.00  0.00     0.041 C 
BRANCH  14  15
HETATM   15  C8  UNK   900      23.844 -21.957 -71.502  1.00  0.00     0.118 C 
BRANCH  15  16
HETATM   16  O3  UNK   900      24.749 -21.907 -70.403  1.00  0.00    -0.396 OA
HETATM   17  H18 UNK   900      24.914 -20.972 -70.192  1.00  0.00     0.210 HD
ENDBRANCH  15  16
BRANCH  15  18
HETATM   18  C10 UNK   900      23.946 -20.663 -72.320  1.00  0.00     0.027 C 
HETATM   19  C13 UNK   900      22.674 -19.827 -72.263  1.00  0.00     0.007 C 
ENDBRANCH  15  18
ENDBRANCH  14  15
ENDBRANCH   3  14
TORSDOF 8
ENDMDL
MODEL 2
REMARK VINA RESULT:      -4.6      1.898      3.123
REMARK  8 active torsions:
REMARK  status: ('A' for Active; 'I' for Inactive)
REMARK    1  A    between atoms: O1_1  and  C3_6 
REMARK    2  A    between atoms: O3_3  and  C8_11 
REMARK    3  A    between atoms: C1_4  and  C3_6 
REMARK    4  A    between atoms: C2_5  and  C4_7 
REMARK    5  A    between atoms: C3_6  and  C9_12 
REMARK    6  A    between atoms: C4_7  and  C8_11 
REMARK    7  A    between atoms: C8_11  and  C10_13 
REMARK    8  A    between atoms: C9_12  and  C11_14 
ROOT
HETATM    1  O2  UNK   900      25.107 -21.218 -77.101  1.00  0.00    -0.292 OA
HETATM    2  C1  UNK   900      24.352 -21.749 -74.856  1.00  0.00     0.096 A 
HETATM    3  C2  UNK   900      24.911 -22.837 -73.920  1.00  0.00     0.025 A 
HETATM    4  C5  UNK   900      25.226 -21.883 -76.081  1.00  0.00     0.162 A 
HETATM    5  C6  UNK   900      26.051 -23.434 -74.692  1.00  0.00    -0.011 A 
HETATM    6  C7  UNK   900      26.256 -22.922 -75.908  1.00  0.00    -0.019 A 
HETATM    7  C12 UNK   900      27.265 -23.268 -76.931  1.00  0.00     0.052 C 
ENDROOT
BRANCH   2   8
HETATM    8  C3  UNK   900      22.889 -21.969 -75.207  1.00  0.00     0.130 C 
BRANCH   8   9
HETATM    9  O1  UNK   900      22.620 -21.354 -76.464  1.00  0.00    -0.395 OA
HETATM   10  H17 UNK   900      21.991 -21.921 -76.941  1.00  0.00     0.210 HD
ENDBRANCH   8   9
BRANCH   8  11
HETATM   11  C9  UNK   900      22.541 -23.461 -75.267  1.00  0.00     0.032 C 
BRANCH  11  12
HETATM   12  C11 UNK   900      22.779 -24.054 -76.658  1.00  0.00    -0.002 C 
HETATM   13  C14 UNK   900      23.190 -25.516 -76.576  1.00  0.00     0.005 C 
ENDBRANCH  11  12
ENDBRANCH   8  11
ENDBRANCH   2   8
BRANCH   3  14
HETATM   14  C4  UNK   900      25.387 -22.258 -72.591  1.00  0.00     0.041 C 
BRANCH  14  15
HETATM   15  C8  UNK   900      24.274 -21.504 -71.856  1.00  0.00     0.118 C 
BRANCH  15  16
HETATM   16  O3  UNK   900      23.424 -22.457 -71.222  1.00  0.00    -0.396 OA
HETATM   17  H18 UNK   900      23.470 -22.308 -70.262  1.00  0.00     0.210 HD
ENDBRANCH  15  16
BRANCH  15  18
HETATM   18  C10 UNK   900      24.868 -20.557 -70.806  1.00  0.00     0.027 C 
HETATM   19  C13 UNK   900      24.294 -20.783 -69.413  1.00  0.00     0.007 C 
ENDBRANCH  15  18
ENDBRANCH  14  15
ENDBRANCH   3  14
TORSDOF 8
ENDMDL
MODEL 3
REMARK VINA RESULT:      -4.5      1.700      4.442
REMARK  8 active torsions:
REMARK  status: ('A' for Active; 'I' for Inactive)
REMARK    1  A    between atoms: O1_1  and  C3_6 
REMARK    2  A    between atoms: O3_3  and  C8_11 
REMARK    3  A    between atoms: C1_4  and  C3_6 
REMARK    4  A    between atoms: C2_5  and  C4_7 
REMARK    5  A    between atoms: C3_6  and  C9_12 
REMARK    6  A    between atoms: C4_7  and  C8_11 
REMARK    7  A    between atoms: C8_11  and  C10_13 
REMARK    8  A    between atoms: C9_12  and  C11_14 
ROOT
HETATM    1  O2  UNK   900      21.959 -22.730 -74.857  1.00  0.00    -0.292 OA
HETATM    2  C1  UNK   900      24.179 -22.309 -73.972  1.00  0.00     0.096 A 
HETATM    3  C2  UNK   900      25.458 -23.122 -74.243  1.00  0.00     0.025 A 
HETATM    4  C5  UNK   900      23.143 -23.030 -74.802  1.00  0.00     0.162 A 
HETATM    5  C6  UNK   900      25.020 -24.178 -75.216  1.00  0.00    -0.011 A 
HETATM    6  C7  UNK   900      23.728 -24.154 -75.551  1.00  0.00    -0.019 A 
HETATM    7  C12 UNK   900      22.963 -25.033 -76.460  1.00  0.00     0.052 C 
ENDROOT
BRANCH   2   8
HETATM    8  C3  UNK   900      23.787 -22.301 -72.502  1.00  0.00     0.130 C 
BRANCH   8   9
HETATM    9  O1  UNK   900      23.418 -23.623 -72.119  1.00  0.00    -0.395 OA
HETATM   10  H17 UNK   900      22.446 -23.672 -72.126  1.00  0.00     0.210 HD
ENDBRANCH   8   9
BRANCH   8  11
HETATM   11  C9  UNK   900      24.932 -21.797 -71.616  1.00  0.00     0.032 C 
BRANCH  11  12
HETATM   12  C11 UNK   900      24.423 -21.159 -70.321  1.00  0.00    -0.002 C 
HETATM   13  C14 UNK   900      23.018 -20.603 -70.491  1.00  0.00     0.005 C 
ENDBRANCH  11  12
ENDBRANCH   8  11
ENDBRANCH   2   8
BRANCH   3  14
HETATM   14  C4  UNK   900      26.571 -22.258 -74.828  1.00  0.00     0.041 C 
BRANCH  14  15
HETATM   15  C8  UNK   900      26.030 -20.990 -75.496  1.00  0.00     0.118 C 
BRANCH  15  16
HETATM   16  O3  UNK   900      26.773 -19.873 -75.015  1.00  0.00    -0.396 OA
HETATM   17  H18 UNK   900      27.631 -20.200 -74.694  1.00  0.00     0.210 HD
ENDBRANCH  15  16
BRANCH  15  18
HETATM   18  C10 UNK   900      26.162 -21.086 -77.022  1.00  0.00     0.027 C 
HETATM   19  C13 UNK   900      24.829 -21.334 -77.715  1.00  0.00     0.007 C 
ENDBRANCH  15  18
ENDBRANCH  14  15
ENDBRANCH   3  14
TORSDOF 8
ENDMDL
MODEL 4
REMARK VINA RESULT:      -4.4     53.749     55.491
REMARK  8 active torsions:
REMARK  status: ('A' for Active; 'I' for Inactive)
REMARK    1  A    between atoms: O1_1  and  C3_6 
REMARK    2  A    between atoms: O3_3  and  C8_11 
REMARK    3  A    between atoms: C1_4  and  C3_6 
REMARK    4  A    between atoms: C2_5  and  C4_7 
REMARK    5  A    between atoms: C3_6  and  C9_12 
REMARK    6  A    between atoms: C4_7  and  C8_11 
REMARK    7  A    between atoms: C8_11  and  C10_13 
REMARK    8  A    between atoms: C9_12  and  C11_14 
ROOT
HETATM    1  O2  UNK   900       8.643 -66.158 -48.959  1.00  0.00    -0.292 OA
HETATM    2  C1  UNK   900       7.628 -68.034 -47.802  1.00  0.00     0.096 A 
HETATM    3  C2  UNK   900       7.216 -69.388 -48.408  1.00  0.00     0.025 A 
HETATM    4  C5  UNK   900       8.212 -67.302 -48.987  1.00  0.00     0.162 A 
HETATM    5  C6  UNK   900       7.642 -69.291 -49.844  1.00  0.00    -0.011 A 
HETATM    6  C7  UNK   900       8.205 -68.134 -50.202  1.00  0.00    -0.019 A 
HETATM    7  C12 UNK   900       8.726 -67.693 -51.512  1.00  0.00     0.052 C 
ENDROOT
BRANCH   2   8
HETATM    8  C3  UNK   900       6.451 -67.268 -47.217  1.00  0.00     0.130 C 
BRANCH   8   9
HETATM    9  O1  UNK   900       6.691 -65.872 -47.369  1.00  0.00    -0.395 OA
HETATM   10  H17 UNK   900       7.278 -65.593 -46.645  1.00  0.00     0.210 HD
ENDBRANCH   8   9
BRANCH   8  11
HETATM   11  C9  UNK   900       5.134 -67.653 -47.899  1.00  0.00     0.032 C 
BRANCH  11  12
HETATM   12  C11 UNK   900       4.654 -66.577 -48.877  1.00  0.00    -0.002 C 
HETATM   13  C14 UNK   900       4.611 -67.103 -50.303  1.00  0.00     0.005 C 
ENDBRANCH  11  12
ENDBRANCH   8  11
ENDBRANCH   2   8
BRANCH   3  14
HETATM   14  C4  UNK   900       7.898 -70.559 -47.707  1.00  0.00     0.041 C 
BRANCH  14  15
HETATM   15  C8  UNK   900       9.136 -70.122 -46.919  1.00  0.00     0.118 C 
BRANCH  15  16
HETATM   16  O3  UNK   900       9.037 -70.641 -45.595  1.00  0.00    -0.396 OA
HETATM   17  H18 UNK   900       9.938 -70.726 -45.238  1.00  0.00     0.210 HD
ENDBRANCH  15  16
BRANCH  15  18
HETATM   18  C10 UNK   900      10.414 -70.642 -47.589  1.00  0.00     0.027 C 
HETATM   19  C13 UNK   900      11.173 -69.555 -48.338  1.00  0.00     0.007 C 
ENDBRANCH  15  18
ENDBRANCH  14  15
ENDBRANCH   3  14
TORSDOF 8
ENDMDL
MODEL 5
REMARK VINA RESULT:      -4.4      2.258      4.905
REMARK  8 active torsions:
REMARK  status: ('A' for Active; 'I' for Inactive)
REMARK    1  A    between atoms: O1_1  and  C3_6 
REMARK    2  A    between atoms: O3_3  and  C8_11 
REMARK    3  A    between atoms: C1_4  and  C3_6 
REMARK    4  A    between atoms: C2_5  and  C4_7 
REMARK    5  A    between atoms: C3_6  and  C9_12 
REMARK    6  A    between atoms: C4_7  and  C8_11 
REMARK    7  A    between atoms: C8_11  and  C10_13 
REMARK    8  A    between atoms: C9_12  and  C11_14 
ROOT
HETATM    1  O2  UNK   900      25.723 -19.812 -75.958  1.00  0.00    -0.292 OA
HETATM    2  C1  UNK   900      23.780 -21.258 -75.804  1.00  0.00     0.096 A 
HETATM    3  C2  UNK   900      22.948 -21.826 -76.969  1.00  0.00     0.025 A 
HETATM    4  C5  UNK   900      24.851 -20.464 -76.515  1.00  0.00     0.162 A 
HETATM    5  C6  UNK   900      23.653 -21.329 -78.198  1.00  0.00    -0.011 A 
HETATM    6  C7  UNK   900      24.724 -20.563 -77.979  1.00  0.00    -0.019 A 
HETATM    7  C12 UNK   900      25.638 -19.905 -78.936  1.00  0.00     0.052 C 
ENDROOT
BRANCH   2   8
HETATM    8  C3  UNK   900      22.966 -20.367 -74.880  1.00  0.00     0.130 C 
BRANCH   8   9
HETATM    9  O1  UNK   900      21.615 -20.345 -75.336  1.00  0.00    -0.395 OA
HETATM   10  H17 UNK   900      21.632 -20.221 -76.300  1.00  0.00     0.210 HD
ENDBRANCH   8   9
BRANCH   8  11
HETATM   11  C9  UNK   900      23.023 -20.857 -73.429  1.00  0.00     0.032 C 
BRANCH  11  12
HETATM   12  C11 UNK   900      24.392 -21.441 -73.070  1.00  0.00    -0.002 C 
HETATM   13  C14 UNK   900      24.255 -22.747 -72.304  1.00  0.00     0.005 C 
ENDBRANCH  11  12
ENDBRANCH   8  11
ENDBRANCH   2   8
BRANCH   3  14
HETATM   14  C4  UNK   900      22.893 -23.351 -76.942  1.00  0.00     0.041 C 
BRANCH  14  15
HETATM   15  C8  UNK   900      23.561 -23.933 -75.693  1.00  0.00     0.118 C 
BRANCH  15  16
HETATM   16  O3  UNK   900      22.610 -24.744 -75.008  1.00  0.00    -0.396 OA
HETATM   17  H18 UNK   900      22.347 -25.466 -75.604  1.00  0.00     0.210 HD
ENDBRANCH  15  16
BRANCH  15  18
HETATM   18  C10 UNK   900      24.783 -24.776 -76.078  1.00  0.00     0.027 C 
HETATM   19  C13 UNK   900      26.090 -23.999 -75.982  1.00  0.00     0.007 C 
ENDBRANCH  15  18
ENDBRANCH  14  15
ENDBRANCH   3  14
TORSDOF 8
ENDMDL
MODEL 6
REMARK VINA RESULT:      -4.3     53.547     55.307
REMARK  8 active torsions:
REMARK  status: ('A' for Active; 'I' for Inactive)
REMARK    1  A    between atoms: O1_1  and  C3_6 
REMARK    2  A    between atoms: O3_3  and  C8_11 
REMARK    3  A    between atoms: C1_4  and  C3_6 
REMARK    4  A    between atoms: C2_5  and  C4_7 
REMARK    5  A    between atoms: C3_6  and  C9_12 
REMARK    6  A    between atoms: C4_7  and  C8_11 
REMARK    7  A    between atoms: C8_11  and  C10_13 
REMARK    8  A    between atoms: C9_12  and  C11_14 
ROOT
HETATM    1  O2  UNK   900       9.021 -71.059 -46.512  1.00  0.00    -0.292 OA
HETATM    2  C1  UNK   900       8.291 -69.408 -48.134  1.00  0.00     0.096 A 
HETATM    3  C2  UNK   900       9.175 -68.608 -49.109  1.00  0.00     0.025 A 
HETATM    4  C5  UNK   900       9.294 -70.275 -47.410  1.00  0.00     0.162 A 
HETATM    5  C6  UNK   900      10.560 -69.131 -48.861  1.00  0.00    -0.011 A 
HETATM    6  C7  UNK   900      10.662 -70.068 -47.914  1.00  0.00    -0.019 A 
HETATM    7  C12 UNK   900      11.850 -70.786 -47.410  1.00  0.00     0.052 C 
ENDROOT
BRANCH   2   8
HETATM    8  C3  UNK   900       7.537 -68.519 -47.158  1.00  0.00     0.130 C 
BRANCH   8   9
HETATM    9  O1  UNK   900       8.208 -68.547 -45.900  1.00  0.00    -0.395 OA
HETATM   10  H17 UNK   900       9.163 -68.605 -46.076  1.00  0.00     0.210 HD
ENDBRANCH   8   9
BRANCH   8  11
HETATM   11  C9  UNK   900       7.438 -67.077 -47.669  1.00  0.00     0.032 C 
BRANCH  11  12
HETATM   12  C11 UNK   900       5.997 -66.676 -47.993  1.00  0.00    -0.002 C 
HETATM   13  C14 UNK   900       5.064 -66.968 -46.829  1.00  0.00     0.005 C 
ENDBRANCH  11  12
ENDBRANCH   8  11
ENDBRANCH   2   8
BRANCH   3  14
HETATM   14  C4  UNK   900       8.757 -68.817 -50.562  1.00  0.00     0.041 C 
BRANCH  14  15
HETATM   15  C8  UNK   900       8.523 -67.492 -51.294  1.00  0.00     0.118 C 
BRANCH  15  16
HETATM   16  O3  UNK   900       9.215 -67.535 -52.539  1.00  0.00    -0.396 OA
HETATM   17  H18 UNK   900       8.864 -68.285 -53.051  1.00  0.00     0.210 HD
ENDBRANCH  15  16
BRANCH  15  18
HETATM   18  C10 UNK   900       7.025 -67.268 -51.537  1.00  0.00     0.027 C 
HETATM   19  C13 UNK   900       6.640 -65.794 -51.530  1.00  0.00     0.007 C 
ENDBRANCH  15  18
ENDBRANCH  14  15
ENDBRANCH   3  14
TORSDOF 8
ENDMDL
MODEL 7
REMARK VINA RESULT:      -4.1     53.398     55.154
REMARK  8 active torsions:
REMARK  status: ('A' for Active; 'I' for Inactive)
REMARK    1  A    between atoms: O1_1  and  C3_6 
REMARK    2  A    between atoms: O3_3  and  C8_11 
REMARK    3  A    between atoms: C1_4  and  C3_6 
REMARK    4  A    between atoms: C2_5  and  C4_7 
REMARK    5  A    between atoms: C3_6  and  C9_12 
REMARK    6  A    between atoms: C4_7  and  C8_11 
REMARK    7  A    between atoms: C8_11  and  C10_13 
REMARK    8  A    between atoms: C9_12  and  C11_14 
ROOT
HETATM    1  O2  UNK   900       9.331 -71.726 -49.172  1.00  0.00    -0.292 OA
HETATM    2  C1  UNK   900       8.229 -69.690 -49.901  1.00  0.00     0.096 A 
HETATM    3  C2  UNK   900       8.722 -68.245 -49.706  1.00  0.00     0.025 A 
HETATM    4  C5  UNK   900       9.330 -70.507 -49.267  1.00  0.00     0.162 A 
HETATM    5  C6  UNK   900      10.052 -68.400 -49.027  1.00  0.00    -0.011 A 
HETATM    6  C7  UNK   900      10.423 -69.656 -48.767  1.00  0.00    -0.019 A 
HETATM    7  C12 UNK   900      11.643 -70.172 -48.113  1.00  0.00     0.052 C 
ENDROOT
BRANCH   2   8
HETATM    8  C3  UNK   900       6.896 -69.954 -49.217  1.00  0.00     0.130 C 
BRANCH   8   9
HETATM    9  O1  UNK   900       6.586 -71.340 -49.335  1.00  0.00    -0.395 OA
HETATM   10  H17 UNK   900       6.208 -71.484 -50.219  1.00  0.00     0.210 HD
ENDBRANCH   8   9
BRANCH   8  11
HETATM   11  C9  UNK   900       6.929 -69.546 -47.740  1.00  0.00     0.032 C 
BRANCH  11  12
HETATM   12  C11 UNK   900       5.986 -68.378 -47.441  1.00  0.00    -0.002 C 
HETATM   13  C14 UNK   900       4.982 -68.174 -48.564  1.00  0.00     0.005 C 
ENDBRANCH  11  12
ENDBRANCH   8  11
ENDBRANCH   2   8
BRANCH   3  14
HETATM   14  C4  UNK   900       8.863 -67.506 -51.034  1.00  0.00     0.041 C 
BRANCH  14  15
HETATM   15  C8  UNK   900       7.920 -66.302 -51.130  1.00  0.00     0.118 C 
BRANCH  15  16
HETATM   16  O3  UNK   900       8.528 -65.318 -51.963  1.00  0.00    -0.396 OA
HETATM   17  H18 UNK   900       8.764 -65.742 -52.806  1.00  0.00     0.210 HD
ENDBRANCH  15  16
BRANCH  15  18
HETATM   18  C10 UNK   900       6.568 -66.722 -51.721  1.00  0.00     0.027 C 
HETATM   19  C13 UNK   900       5.497 -65.650 -51.564  1.00  0.00     0.007 C 
ENDBRANCH  15  18
ENDBRANCH  14  15
ENDBRANCH   3  14
TORSDOF 8
ENDMDL
MODEL 8
REMARK VINA RESULT:      -4.0     42.594     44.397
REMARK  8 active torsions:
REMARK  status: ('A' for Active; 'I' for Inactive)
REMARK    1  A    between atoms: O1_1  and  C3_6 
REMARK    2  A    between atoms: O3_3  and  C8_11 
REMARK    3  A    between atoms: C1_4  and  C3_6 
REMARK    4  A    between atoms: C2_5  and  C4_7 
REMARK    5  A    between atoms: C3_6  and  C9_12 
REMARK    6  A    between atoms: C4_7  and  C8_11 
REMARK    7  A    between atoms: C8_11  and  C10_13 
REMARK    8  A    between atoms: C9_12  and  C11_14 
ROOT
HETATM    1  O2  UNK   900      40.033 -53.915 -44.998  1.00  0.00    -0.292 OA
HETATM    2  C1  UNK   900      41.606 -53.303 -46.741  1.00  0.00     0.096 A 
HETATM    3  C2  UNK   900      41.874 -51.893 -47.299  1.00  0.00     0.025 A 
HETATM    4  C5  UNK   900      40.561 -53.049 -45.681  1.00  0.00     0.162 A 
HETATM    5  C6  UNK   900      40.991 -51.000 -46.477  1.00  0.00    -0.011 A 
HETATM    6  C7  UNK   900      40.241 -51.617 -45.559  1.00  0.00    -0.019 A 
HETATM    7  C12 UNK   900      39.267 -51.063 -44.597  1.00  0.00     0.052 C 
ENDROOT
BRANCH   2   8
HETATM    8  C3  UNK   900      41.085 -54.264 -47.798  1.00  0.00     0.130 C 
BRANCH   8   9
HETATM    9  O1  UNK   900      41.023 -53.582 -49.048  1.00  0.00    -0.395 OA
HETATM   10  H17 UNK   900      40.299 -52.935 -48.995  1.00  0.00     0.210 HD
ENDBRANCH   8   9
BRANCH   8  11
HETATM   11  C9  UNK   900      41.976 -55.506 -47.919  1.00  0.00     0.032 C 
BRANCH  11  12
HETATM   12  C11 UNK   900      42.330 -56.099 -46.553  1.00  0.00    -0.002 C 
HETATM   13  C14 UNK   900      41.256 -57.060 -46.070  1.00  0.00     0.005 C 
ENDBRANCH  11  12
ENDBRANCH   8  11
ENDBRANCH   2   8
BRANCH   3  14
HETATM   14  C4  UNK   900      43.341 -51.495 -47.164  1.00  0.00     0.041 C 
BRANCH  14  15
HETATM   15  C8  UNK   900      43.951 -51.068 -48.502  1.00  0.00     0.118 C 
BRANCH  15  16
HETATM   16  O3  UNK   900      43.109 -51.534 -49.553  1.00  0.00    -0.396 OA
HETATM   17  H18 UNK   900      43.491 -52.359 -49.900  1.00  0.00     0.210 HD
ENDBRANCH  15  16
BRANCH  15  18
HETATM   18  C10 UNK   900      44.078 -49.541 -48.575  1.00  0.00     0.027 C 
HETATM   19  C13 UNK   900      42.872 -48.879 -49.228  1.00  0.00     0.007 C 
ENDBRANCH  15  18
ENDBRANCH  14  15
ENDBRANCH   3  14
TORSDOF 8
ENDMDL
MODEL 9
REMARK VINA RESULT:      -4.0     32.075     34.288
REMARK  8 active torsions:
REMARK  status: ('A' for Active; 'I' for Inactive)
REMARK    1  A    between atoms: O1_1  and  C3_6 
REMARK    2  A    between atoms: O3_3  and  C8_11 
REMARK    3  A    between atoms: C1_4  and  C3_6 
REMARK    4  A    between atoms: C2_5  and  C4_7 
REMARK    5  A    between atoms: C3_6  and  C9_12 
REMARK    6  A    between atoms: C4_7  and  C8_11 
REMARK    7  A    between atoms: C8_11  and  C10_13 
REMARK    8  A    between atoms: C9_12  and  C11_14 
ROOT
HETATM    1  O2  UNK   900       7.803 -46.319 -96.750  1.00  0.00    -0.292 OA
HETATM    2  C1  UNK   900       9.359 -44.965 -95.471  1.00  0.00     0.096 A 
HETATM    3  C2  UNK   900       9.891 -43.567 -95.834  1.00  0.00     0.025 A 
HETATM    4  C5  UNK   900       8.426 -45.276 -96.619  1.00  0.00     0.162 A 
HETATM    5  C6  UNK   900       9.181 -43.226 -97.112  1.00  0.00    -0.011 A 
HETATM    6  C7  UNK   900       8.352 -44.162 -97.579  1.00  0.00    -0.019 A 
HETATM    7  C12 UNK   900       7.510 -44.169 -98.794  1.00  0.00     0.052 C 
ENDROOT
BRANCH   2   8
HETATM    8  C3  UNK   900      10.462 -46.007 -95.371  1.00  0.00     0.130 C 
BRANCH   8   9
HETATM    9  O1  UNK   900       9.915 -47.204 -94.825  1.00  0.00    -0.395 OA
HETATM   10  H17 UNK   900      10.598 -47.613 -94.265  1.00  0.00     0.210 HD
ENDBRANCH   8   9
BRANCH   8  11
HETATM   11  C9  UNK   900      11.093 -46.293 -96.738  1.00  0.00     0.032 C 
BRANCH  11  12
HETATM   12  C11 UNK   900      12.546 -45.817 -96.816  1.00  0.00    -0.002 C 
HETATM   13  C14 UNK   900      12.769 -44.907 -98.013  1.00  0.00     0.005 C 
ENDBRANCH  11  12
ENDBRANCH   8  11
ENDBRANCH   2   8
BRANCH   3  14
HETATM   14  C4  UNK   900       9.592 -42.541 -94.745  1.00  0.00     0.041 C 
BRANCH  14  15
HETATM   15  C8  UNK   900       8.378 -42.933 -93.897  1.00  0.00     0.118 C 
BRANCH  15  16
HETATM   16  O3  UNK   900       8.616 -42.527 -92.552  1.00  0.00    -0.396 OA
HETATM   17  H18 UNK   900       7.761 -42.285 -92.156  1.00  0.00     0.210 HD
ENDBRANCH  15  16
BRANCH  15  18
HETATM   18  C10 UNK   900       7.108 -42.256 -94.429  1.00  0.00     0.027 C 
HETATM   19  C13 UNK   900       5.973 -43.242 -94.675  1.00  0.00     0.007 C 
ENDBRANCH  15  18
ENDBRANCH  14  15
ENDBRANCH   3  14
TORSDOF 8
ENDMDL
