MODEL 1
REMARK VINA RESULT:      -8.0      0.000      0.000
REMARK  7 active torsions:
REMARK  status: ('A' for Active; 'I' for Inactive)
REMARK    1  A    between atoms: O1_1  and  C1_6 
REMARK    2  A    between atoms: O2_2  and  C3_8 
REMARK    3  A    between atoms: O3_3  and  C4_9 
REMARK    4  A    between atoms: O4_4  and  C11_16 
REMARK    5  A    between atoms: O5_5  and  C14_19 
REMARK    6  A    between atoms: C8_13  and  C11_16 
REMARK    7  A    between atoms: C11_16  and  C14_19 
ROOT
HETATM    1  C1  UNK   900      23.788 -37.591 -66.884  1.00  0.00     0.095 C 
HETATM    2  C2  UNK   900      25.327 -37.737 -66.999  1.00  0.00     0.057 C 
HETATM    3  C3  UNK   900      23.336 -39.072 -67.052  1.00  0.00     0.085 C 
HETATM    4  C4  UNK   900      26.203 -36.470 -67.166  1.00  0.00     0.061 C 
HETATM    5  C5  UNK   900      23.133 -36.638 -67.911  1.00  0.00     0.049 C 
HETATM    6  C6  UNK   900      25.532 -38.831 -68.070  1.00  0.00     0.014 C 
HETATM    7  C7  UNK   900      24.196 -39.570 -68.213  1.00  0.00     0.041 C 
HETATM    8  C8  UNK   900      23.460 -35.149 -67.699  1.00  0.00     0.025 C 
HETATM    9  C9  UNK   900      25.917 -35.660 -68.444  1.00  0.00     0.038 C 
HETATM   10  C10 UNK   900      24.736 -34.691 -68.412  1.00  0.00     0.011 C 
HETATM   11  C12 UNK   900      21.849 -39.322 -67.275  1.00  0.00     0.049 C 
HETATM   12  C13 UNK   900      27.690 -36.876 -67.160  1.00  0.00     0.046 C 
ENDROOT
BRANCH   8  13
HETATM   13  C11 UNK   900      22.289 -34.275 -68.172  1.00  0.00     0.079 C 
HETATM   14  C15 UNK   900      21.011 -35.107 -68.248  1.00  0.00     0.048 C 
BRANCH  13  15
HETATM   15  O4  UNK   900      22.586 -33.822 -69.493  1.00  0.00    -0.388 OA
HETATM   16  H27 UNK   900      22.486 -34.578 -70.098  1.00  0.00     0.210 HD
ENDBRANCH  13  15
BRANCH  13  17
HETATM   17  C14 UNK   900      22.134 -33.059 -67.253  1.00  0.00     0.201 C 
BRANCH  17  18
HETATM   18  O5  UNK   900      20.953 -32.338 -67.587  1.00  0.00    -0.398 OA
HETATM   19  H28 UNK   900      20.551 -32.783 -68.352  1.00  0.00     0.209 HD
ENDBRANCH  17  18
ENDBRANCH  13  17
ENDBRANCH   8  13
BRANCH   1  20
HETATM   20  O1  UNK   900      23.450 -37.145 -65.569  1.00  0.00    -0.386 OA
HETATM   21  H19 UNK   900      23.189 -37.923 -65.048  1.00  0.00     0.210 HD
ENDBRANCH   1  20
BRANCH   3  22
HETATM   22  O2  UNK   900      23.719 -39.827 -65.893  1.00  0.00    -0.387 OA
HETATM   23  H20 UNK   900      23.828 -40.757 -66.158  1.00  0.00     0.210 HD
ENDBRANCH   3  22
BRANCH   4  24
HETATM   24  O3  UNK   900      26.009 -35.639 -66.017  1.00  0.00    -0.390 OA
HETATM   25  H21 UNK   900      26.833 -35.151 -65.855  1.00  0.00     0.210 HD
ENDBRANCH   4  24
TORSDOF 7
ENDMDL
MODEL 2
REMARK VINA RESULT:      -7.9      2.603      3.908
REMARK  7 active torsions:
REMARK  status: ('A' for Active; 'I' for Inactive)
REMARK    1  A    between atoms: O1_1  and  C1_6 
REMARK    2  A    between atoms: O2_2  and  C3_8 
REMARK    3  A    between atoms: O3_3  and  C4_9 
REMARK    4  A    between atoms: O4_4  and  C11_16 
REMARK    5  A    between atoms: O5_5  and  C14_19 
REMARK    6  A    between atoms: C8_13  and  C11_16 
REMARK    7  A    between atoms: C11_16  and  C14_19 
ROOT
HETATM    1  C1  UNK   900      22.203 -38.561 -69.847  1.00  0.00     0.095 C 
HETATM    2  C2  UNK   900      22.456 -39.533 -68.666  1.00  0.00     0.057 C 
HETATM    3  C3  UNK   900      22.551 -39.473 -71.062  1.00  0.00     0.085 C 
HETATM    4  C4  UNK   900      22.502 -38.979 -67.221  1.00  0.00     0.061 C 
HETATM    5  C5  UNK   900      23.025 -37.252 -69.818  1.00  0.00     0.049 C 
HETATM    6  C6  UNK   900      23.689 -40.355 -69.101  1.00  0.00     0.014 C 
HETATM    7  C7  UNK   900      23.836 -40.170 -70.617  1.00  0.00     0.041 C 
HETATM    8  C8  UNK   900      22.622 -36.270 -68.703  1.00  0.00     0.025 C 
HETATM    9  C9  UNK   900      23.621 -37.953 -66.965  1.00  0.00     0.038 C 
HETATM   10  C10 UNK   900      23.356 -36.506 -67.379  1.00  0.00     0.011 C 
HETATM   11  C12 UNK   900      22.693 -38.795 -72.419  1.00  0.00     0.049 C 
HETATM   12  C13 UNK   900      22.670 -40.151 -66.233  1.00  0.00     0.046 C 
ENDROOT
BRANCH   8  13
HETATM   13  C11 UNK   900      22.870 -34.822 -69.154  1.00  0.00     0.079 C 
HETATM   14  C15 UNK   900      23.707 -34.085 -68.111  1.00  0.00     0.048 C 
BRANCH  13  15
HETATM   15  O4  UNK   900      21.605 -34.165 -69.233  1.00  0.00    -0.388 OA
HETATM   16  H27 UNK   900      21.709 -33.386 -69.807  1.00  0.00     0.210 HD
ENDBRANCH  13  15
BRANCH  13  17
HETATM   17  C14 UNK   900      23.526 -34.807 -70.538  1.00  0.00     0.201 C 
BRANCH  17  18
HETATM   18  O5  UNK   900      22.845 -33.896 -71.394  1.00  0.00    -0.398 OA
HETATM   19  H28 UNK   900      23.173 -33.006 -71.186  1.00  0.00     0.209 HD
ENDBRANCH  17  18
ENDBRANCH  13  17
ENDBRANCH   8  13
BRANCH   1  20
HETATM   20  O1  UNK   900      20.814 -38.227 -69.898  1.00  0.00    -0.386 OA
HETATM   21  H19 UNK   900      20.670 -37.464 -69.312  1.00  0.00     0.210 HD
ENDBRANCH   1  20
BRANCH   3  22
HETATM   22  O2  UNK   900      21.549 -40.491 -71.204  1.00  0.00    -0.387 OA
HETATM   23  H20 UNK   900      21.827 -41.265 -70.685  1.00  0.00     0.210 HD
ENDBRANCH   3  22
BRANCH   4  24
HETATM   24  O3  UNK   900      21.232 -38.387 -66.929  1.00  0.00    -0.390 OA
HETATM   25  H21 UNK   900      20.542 -39.049 -67.108  1.00  0.00     0.210 HD
ENDBRANCH   4  24
TORSDOF 7
ENDMDL
MODEL 3
REMARK VINA RESULT:      -7.6      2.161      3.657
REMARK  7 active torsions:
REMARK  status: ('A' for Active; 'I' for Inactive)
REMARK    1  A    between atoms: O1_1  and  C1_6 
REMARK    2  A    between atoms: O2_2  and  C3_8 
REMARK    3  A    between atoms: O3_3  and  C4_9 
REMARK    4  A    between atoms: O4_4  and  C11_16 
REMARK    5  A    between atoms: O5_5  and  C14_19 
REMARK    6  A    between atoms: C8_13  and  C11_16 
REMARK    7  A    between atoms: C11_16  and  C14_19 
ROOT
HETATM    1  C1  UNK   900      22.865 -37.343 -68.571  1.00  0.00     0.095 C 
HETATM    2  C2  UNK   900      22.472 -38.442 -67.551  1.00  0.00     0.057 C 
HETATM    3  C3  UNK   900      23.223 -38.209 -69.816  1.00  0.00     0.085 C 
HETATM    4  C4  UNK   900      22.298 -38.068 -66.058  1.00  0.00     0.061 C 
HETATM    5  C5  UNK   900      24.016 -36.410 -68.132  1.00  0.00     0.049 C 
HETATM    6  C6  UNK   900      23.454 -39.600 -67.834  1.00  0.00     0.014 C 
HETATM    7  C7  UNK   900      24.054 -39.347 -69.222  1.00  0.00     0.041 C 
HETATM    8  C8  UNK   900      23.657 -35.451 -66.983  1.00  0.00     0.025 C 
HETATM    9  C9  UNK   900      23.570 -37.521 -65.384  1.00  0.00     0.038 C 
HETATM   10  C10 UNK   900      23.893 -36.042 -65.590  1.00  0.00     0.011 C 
HETATM   11  C12 UNK   900      23.932 -37.507 -70.968  1.00  0.00     0.049 C 
HETATM   12  C13 UNK   900      21.817 -39.307 -65.277  1.00  0.00     0.046 C 
ENDROOT
BRANCH   8  13
HETATM   13  C11 UNK   900      24.458 -34.146 -67.108  1.00  0.00     0.079 C 
HETATM   14  C15 UNK   900      25.805 -34.421 -67.774  1.00  0.00     0.048 C 
BRANCH  13  15
HETATM   15  O4  UNK   900      24.721 -33.664 -65.791  1.00  0.00    -0.388 OA
HETATM   16  H27 UNK   900      25.229 -32.839 -65.870  1.00  0.00     0.210 HD
ENDBRANCH  13  15
BRANCH  13  17
HETATM   17  C14 UNK   900      23.641 -33.097 -67.867  1.00  0.00     0.201 C 
BRANCH  17  18
HETATM   18  O5  UNK   900      24.414 -31.918 -68.062  1.00  0.00    -0.398 OA
HETATM   19  H28 UNK   900      23.797 -31.167 -68.073  1.00  0.00     0.209 HD
ENDBRANCH  17  18
ENDBRANCH  13  17
ENDBRANCH   8  13
BRANCH   1  20
HETATM   20  O1  UNK   900      21.719 -36.544 -68.873  1.00  0.00    -0.386 OA
HETATM   21  H19 UNK   900      21.065 -36.683 -68.169  1.00  0.00     0.210 HD
ENDBRANCH   1  20
BRANCH   3  22
HETATM   22  O2  UNK   900      22.030 -38.799 -70.354  1.00  0.00    -0.387 OA
HETATM   23  H20 UNK   900      22.091 -39.763 -70.243  1.00  0.00     0.210 HD
ENDBRANCH   3  22
BRANCH   4  24
HETATM   24  O3  UNK   900      21.248 -37.099 -65.961  1.00  0.00    -0.390 OA
HETATM   25  H21 UNK   900      21.611 -36.303 -65.537  1.00  0.00     0.210 HD
ENDBRANCH   4  24
TORSDOF 7
ENDMDL
MODEL 4
REMARK VINA RESULT:      -7.5      1.645      4.807
REMARK  7 active torsions:
REMARK  status: ('A' for Active; 'I' for Inactive)
REMARK    1  A    between atoms: O1_1  and  C1_6 
REMARK    2  A    between atoms: O2_2  and  C3_8 
REMARK    3  A    between atoms: O3_3  and  C4_9 
REMARK    4  A    between atoms: O4_4  and  C11_16 
REMARK    5  A    between atoms: O5_5  and  C14_19 
REMARK    6  A    between atoms: C8_13  and  C11_16 
REMARK    7  A    between atoms: C11_16  and  C14_19 
ROOT
HETATM    1  C1  UNK   900      24.329 -36.221 -67.106  1.00  0.00     0.095 C 
HETATM    2  C2  UNK   900      23.730 -34.808 -67.323  1.00  0.00     0.057 C 
HETATM    3  C3  UNK   900      25.745 -36.041 -67.729  1.00  0.00     0.085 C 
HETATM    4  C4  UNK   900      22.213 -34.581 -67.103  1.00  0.00     0.061 C 
HETATM    5  C5  UNK   900      23.532 -37.384 -67.740  1.00  0.00     0.049 C 
HETATM    6  C6  UNK   900      24.273 -34.366 -68.700  1.00  0.00     0.014 C 
HETATM    7  C7  UNK   900      25.463 -35.278 -69.023  1.00  0.00     0.041 C 
HETATM    8  C8  UNK   900      22.177 -37.671 -67.067  1.00  0.00     0.025 C 
HETATM    9  C9  UNK   900      21.303 -35.402 -68.035  1.00  0.00     0.038 C 
HETATM   10  C10 UNK   900      21.019 -36.850 -67.642  1.00  0.00     0.011 C 
HETATM   11  C12 UNK   900      26.565 -37.305 -67.963  1.00  0.00     0.049 C 
HETATM   12  C13 UNK   900      21.892 -33.084 -67.289  1.00  0.00     0.046 C 
ENDROOT
BRANCH   8  13
HETATM   13  C11 UNK   900      21.831 -39.163 -67.183  1.00  0.00     0.079 C 
HETATM   14  C15 UNK   900      22.384 -39.730 -68.489  1.00  0.00     0.048 C 
BRANCH  13  15
HETATM   15  O4  UNK   900      20.410 -39.281 -67.231  1.00  0.00    -0.388 OA
HETATM   16  H27 UNK   900      20.038 -38.385 -67.298  1.00  0.00     0.210 HD
ENDBRANCH  13  15
BRANCH  13  17
HETATM   17  C14 UNK   900      22.352 -39.921 -65.958  1.00  0.00     0.201 C 
BRANCH  17  18
HETATM   18  O5  UNK   900      21.605 -39.558 -64.802  1.00  0.00    -0.398 OA
HETATM   19  H28 UNK   900      21.793 -40.223 -64.118  1.00  0.00     0.209 HD
ENDBRANCH  17  18
ENDBRANCH  13  17
ENDBRANCH   8  13
BRANCH   1  20
HETATM   20  O1  UNK   900      24.463 -36.469 -65.706  1.00  0.00    -0.386 OA
HETATM   21  H19 UNK   900      25.404 -36.626 -65.519  1.00  0.00     0.210 HD
ENDBRANCH   1  20
BRANCH   3  22
HETATM   22  O2  UNK   900      26.533 -35.178 -66.896  1.00  0.00    -0.387 OA
HETATM   23  H20 UNK   900      27.469 -35.305 -67.127  1.00  0.00     0.210 HD
ENDBRANCH   3  22
BRANCH   4  24
HETATM   24  O3  UNK   900      21.909 -34.891 -65.739  1.00  0.00    -0.390 OA
HETATM   25  H21 UNK   900      22.600 -34.498 -65.179  1.00  0.00     0.210 HD
ENDBRANCH   4  24
TORSDOF 7
ENDMDL
MODEL 5
REMARK VINA RESULT:      -6.6     36.885     39.881
REMARK  7 active torsions:
REMARK  status: ('A' for Active; 'I' for Inactive)
REMARK    1  A    between atoms: O1_1  and  C1_6 
REMARK    2  A    between atoms: O2_2  and  C3_8 
REMARK    3  A    between atoms: O3_3  and  C4_9 
REMARK    4  A    between atoms: O4_4  and  C11_16 
REMARK    5  A    between atoms: O5_5  and  C14_19 
REMARK    6  A    between atoms: C8_13  and  C11_16 
REMARK    7  A    between atoms: C11_16  and  C14_19 
ROOT
HETATM    1  C1  UNK   900       8.505 -66.942 -50.161  1.00  0.00     0.095 C 
HETATM    2  C2  UNK   900       7.151 -66.509 -49.543  1.00  0.00     0.057 C 
HETATM    3  C3  UNK   900       8.301 -66.522 -51.647  1.00  0.00     0.085 C 
HETATM    4  C4  UNK   900       6.780 -66.981 -48.115  1.00  0.00     0.061 C 
HETATM    5  C5  UNK   900       8.862 -68.438 -49.999  1.00  0.00     0.049 C 
HETATM    6  C6  UNK   900       6.109 -66.827 -50.638  1.00  0.00     0.014 C 
HETATM    7  C7  UNK   900       6.881 -66.998 -51.952  1.00  0.00     0.041 C 
HETATM    8  C8  UNK   900       9.192 -68.862 -48.556  1.00  0.00     0.025 C 
HETATM    9  C9  UNK   900       6.669 -68.508 -47.956  1.00  0.00     0.038 C 
HETATM   10  C10 UNK   900       7.966 -69.288 -47.743  1.00  0.00     0.011 C 
HETATM   11  C12 UNK   900       9.319 -67.034 -52.659  1.00  0.00     0.049 C 
HETATM   12  C13 UNK   900       5.439 -66.341 -47.702  1.00  0.00     0.046 C 
ENDROOT
BRANCH   8  13
HETATM   13  C11 UNK   900      10.207 -70.015 -48.560  1.00  0.00     0.079 C 
HETATM   14  C15 UNK   900      11.620 -69.471 -48.356  1.00  0.00     0.048 C 
BRANCH  13  15
HETATM   15  O4  UNK   900      10.166 -70.631 -49.847  1.00  0.00    -0.388 OA
HETATM   16  H27 UNK   900       9.640 -71.445 -49.772  1.00  0.00     0.210 HD
ENDBRANCH  13  15
BRANCH  13  17
HETATM   17  C14 UNK   900       9.829 -71.054 -47.500  1.00  0.00     0.201 C 
BRANCH  17  18
HETATM   18  O5  UNK   900      10.799 -71.070 -46.459  1.00  0.00    -0.398 OA
HETATM   19  H28 UNK   900      11.106 -70.156 -46.338  1.00  0.00     0.209 HD
ENDBRANCH  17  18
ENDBRANCH  13  17
ENDBRANCH   8  13
BRANCH   1  20
HETATM   20  O1  UNK   900       9.557 -66.158 -49.595  1.00  0.00    -0.386 OA
HETATM   21  H19 UNK   900      10.097 -66.742 -49.036  1.00  0.00     0.210 HD
ENDBRANCH   1  20
BRANCH   3  22
HETATM   22  O2  UNK   900       8.294 -65.090 -51.747  1.00  0.00    -0.387 OA
HETATM   23  H20 UNK   900       8.520 -64.724 -50.876  1.00  0.00     0.210 HD
ENDBRANCH   3  22
BRANCH   4  24
HETATM   24  O3  UNK   900       7.764 -66.473 -47.208  1.00  0.00    -0.390 OA
HETATM   25  H21 UNK   900       7.485 -66.698 -46.304  1.00  0.00     0.210 HD
ENDBRANCH   4  24
TORSDOF 7
ENDMDL
MODEL 6
REMARK VINA RESULT:      -6.4     10.981     13.353
REMARK  7 active torsions:
REMARK  status: ('A' for Active; 'I' for Inactive)
REMARK    1  A    between atoms: O1_1  and  C1_6 
REMARK    2  A    between atoms: O2_2  and  C3_8 
REMARK    3  A    between atoms: O3_3  and  C4_9 
REMARK    4  A    between atoms: O4_4  and  C11_16 
REMARK    5  A    between atoms: O5_5  and  C14_19 
REMARK    6  A    between atoms: C8_13  and  C11_16 
REMARK    7  A    between atoms: C11_16  and  C14_19 
ROOT
HETATM    1  C1  UNK   900      30.608 -46.902 -61.897  1.00  0.00     0.095 C 
HETATM    2  C2  UNK   900      31.913 -46.486 -61.172  1.00  0.00     0.057 C 
HETATM    3  C3  UNK   900      30.358 -48.308 -61.274  1.00  0.00     0.085 C 
HETATM    4  C4  UNK   900      32.705 -45.254 -61.676  1.00  0.00     0.061 C 
HETATM    5  C5  UNK   900      30.686 -46.930 -63.441  1.00  0.00     0.049 C 
HETATM    6  C6  UNK   900      32.726 -47.795 -61.059  1.00  0.00     0.014 C 
HETATM    7  C7  UNK   900      31.745 -48.950 -61.294  1.00  0.00     0.041 C 
HETATM    8  C8  UNK   900      30.809 -45.544 -64.099  1.00  0.00     0.025 C 
HETATM    9  C9  UNK   900      33.230 -45.377 -63.118  1.00  0.00     0.038 C 
HETATM   10  C10 UNK   900      32.254 -45.060 -64.250  1.00  0.00     0.011 C 
HETATM   11  C12 UNK   900      29.299 -49.181 -61.937  1.00  0.00     0.049 C 
HETATM   12  C13 UNK   900      33.899 -44.998 -60.734  1.00  0.00     0.046 C 
ENDROOT
BRANCH   8  13
HETATM   13  C11 UNK   900      30.143 -45.551 -65.483  1.00  0.00     0.079 C 
HETATM   14  C15 UNK   900      30.826 -44.537 -66.399  1.00  0.00     0.048 C 
BRANCH  13  15
HETATM   15  O4  UNK   900      28.787 -45.137 -65.320  1.00  0.00    -0.388 OA
HETATM   16  H27 UNK   900      28.764 -44.457 -64.625  1.00  0.00     0.210 HD
ENDBRANCH  13  15
BRANCH  13  17
HETATM   17  C14 UNK   900      30.164 -46.966 -66.070  1.00  0.00     0.201 C 
BRANCH  17  18
HETATM   18  O5  UNK   900      28.853 -47.352 -66.468  1.00  0.00    -0.398 OA
HETATM   19  H28 UNK   900      28.686 -46.951 -67.338  1.00  0.00     0.209 HD
ENDBRANCH  17  18
ENDBRANCH  13  17
ENDBRANCH   8  13
BRANCH   1  20
HETATM   20  O1  UNK   900      29.549 -46.025 -61.510  1.00  0.00    -0.386 OA
HETATM   21  H19 UNK   900      28.739 -46.555 -61.423  1.00  0.00     0.210 HD
ENDBRANCH   1  20
BRANCH   3  22
HETATM   22  O2  UNK   900      29.981 -48.165 -59.896  1.00  0.00    -0.387 OA
HETATM   23  H20 UNK   900      29.967 -49.049 -59.492  1.00  0.00     0.210 HD
ENDBRANCH   3  22
BRANCH   4  24
HETATM   24  O3  UNK   900      31.857 -44.105 -61.570  1.00  0.00    -0.390 OA
HETATM   25  H21 UNK   900      31.968 -43.729 -60.681  1.00  0.00     0.210 HD
ENDBRANCH   4  24
TORSDOF 7
ENDMDL
MODEL 7
REMARK VINA RESULT:      -6.2     13.826     15.331
REMARK  7 active torsions:
REMARK  status: ('A' for Active; 'I' for Inactive)
REMARK    1  A    between atoms: O1_1  and  C1_6 
REMARK    2  A    between atoms: O2_2  and  C3_8 
REMARK    3  A    between atoms: O3_3  and  C4_9 
REMARK    4  A    between atoms: O4_4  and  C11_16 
REMARK    5  A    between atoms: O5_5  and  C14_19 
REMARK    6  A    between atoms: C8_13  and  C11_16 
REMARK    7  A    between atoms: C11_16  and  C14_19 
ROOT
HETATM    1  C1  UNK   900      36.807 -33.551 -60.441  1.00  0.00     0.095 C 
HETATM    2  C2  UNK   900      36.069 -34.647 -59.631  1.00  0.00     0.057 C 
HETATM    3  C3  UNK   900      38.197 -34.222 -60.651  1.00  0.00     0.085 C 
HETATM    4  C4  UNK   900      34.720 -34.312 -58.948  1.00  0.00     0.061 C 
HETATM    5  C5  UNK   900      36.901 -32.168 -59.756  1.00  0.00     0.049 C 
HETATM    6  C6  UNK   900      37.154 -35.235 -58.701  1.00  0.00     0.014 C 
HETATM    7  C7  UNK   900      38.511 -34.812 -59.276  1.00  0.00     0.041 C 
HETATM    8  C8  UNK   900      35.560 -31.420 -59.643  1.00  0.00     0.025 C 
HETATM    9  C9  UNK   900      34.801 -33.203 -57.884  1.00  0.00     0.038 C 
HETATM   10  C10 UNK   900      34.772 -31.756 -58.373  1.00  0.00     0.011 C 
HETATM   11  C12 UNK   900      39.321 -33.339 -61.179  1.00  0.00     0.049 C 
HETATM   12  C13 UNK   900      34.151 -35.587 -58.294  1.00  0.00     0.046 C 
ENDROOT
BRANCH   8  13
HETATM   13  C11 UNK   900      35.792 -29.902 -59.694  1.00  0.00     0.079 C 
HETATM   14  C15 UNK   900      36.510 -29.525 -60.988  1.00  0.00     0.048 C 
BRANCH  13  15
HETATM   15  O4  UNK   900      36.651 -29.553 -58.609  1.00  0.00    -0.388 OA
HETATM   16  H27 UNK   900      36.882 -28.613 -58.700  1.00  0.00     0.210 HD
ENDBRANCH  13  15
BRANCH  13  17
HETATM   17  C14 UNK   900      34.462 -29.160 -59.533  1.00  0.00     0.201 C 
BRANCH  17  18
HETATM   18  O5  UNK   900      33.670 -29.312 -60.706  1.00  0.00    -0.398 OA
HETATM   19  H28 UNK   900      34.234 -29.089 -61.465  1.00  0.00     0.209 HD
ENDBRANCH  17  18
ENDBRANCH  13  17
ENDBRANCH   8  13
BRANCH   1  20
HETATM   20  O1  UNK   900      36.171 -33.389 -61.710  1.00  0.00    -0.386 OA
HETATM   21  H19 UNK   900      35.233 -33.188 -61.550  1.00  0.00     0.210 HD
ENDBRANCH   1  20
BRANCH   3  22
HETATM   22  O2  UNK   900      38.068 -35.325 -61.560  1.00  0.00    -0.387 OA
HETATM   23  H20 UNK   900      37.217 -35.764 -61.387  1.00  0.00     0.210 HD
ENDBRANCH   3  22
BRANCH   4  24
HETATM   24  O3  UNK   900      33.788 -33.933 -59.967  1.00  0.00    -0.390 OA
HETATM   25  H21 UNK   900      33.119 -34.635 -60.040  1.00  0.00     0.210 HD
ENDBRANCH   4  24
TORSDOF 7
ENDMDL
MODEL 8
REMARK VINA RESULT:      -6.1     32.828     35.554
REMARK  7 active torsions:
REMARK  status: ('A' for Active; 'I' for Inactive)
REMARK    1  A    between atoms: O1_1  and  C1_6 
REMARK    2  A    between atoms: O2_2  and  C3_8 
REMARK    3  A    between atoms: O3_3  and  C4_9 
REMARK    4  A    between atoms: O4_4  and  C11_16 
REMARK    5  A    between atoms: O5_5  and  C14_19 
REMARK    6  A    between atoms: C8_13  and  C11_16 
REMARK    7  A    between atoms: C11_16  and  C14_19 
ROOT
HETATM    1  C1  UNK   900       5.583 -64.899 -63.503  1.00  0.00     0.095 C 
HETATM    2  C2  UNK   900       5.586 -63.957 -62.272  1.00  0.00     0.057 C 
HETATM    3  C3  UNK   900       5.510 -63.867 -64.667  1.00  0.00     0.085 C 
HETATM    4  C4  UNK   900       5.372 -64.550 -60.857  1.00  0.00     0.061 C 
HETATM    5  C5  UNK   900       4.437 -65.937 -63.541  1.00  0.00     0.049 C 
HETATM    6  C6  UNK   900       4.626 -62.811 -62.662  1.00  0.00     0.014 C 
HETATM    7  C7  UNK   900       4.455 -62.871 -64.185  1.00  0.00     0.041 C 
HETATM    8  C8  UNK   900       4.545 -67.046 -62.480  1.00  0.00     0.025 C 
HETATM    9  C9  UNK   900       4.014 -65.247 -60.655  1.00  0.00     0.038 C 
HETATM   10  C10 UNK   900       3.885 -66.688 -61.145  1.00  0.00     0.011 C 
HETATM   11  C12 UNK   900       5.208 -64.412 -66.058  1.00  0.00     0.049 C 
HETATM   12  C13 UNK   900       5.513 -63.427 -59.810  1.00  0.00     0.046 C 
ENDROOT
BRANCH   8  13
HETATM   13  C11 UNK   900       3.921 -68.348 -63.006  1.00  0.00     0.079 C 
HETATM   14  C15 UNK   900       2.587 -68.052 -63.688  1.00  0.00     0.048 C 
BRANCH  13  15
HETATM   15  O4  UNK   900       3.653 -69.190 -61.885  1.00  0.00    -0.388 OA
HETATM   16  H27 UNK   900       2.880 -68.828 -61.417  1.00  0.00     0.210 HD
ENDBRANCH  13  15
BRANCH  13  17
HETATM   17  C14 UNK   900       4.903 -69.062 -63.940  1.00  0.00     0.201 C 
BRANCH  17  18
HETATM   18  O5  UNK   900       5.039 -70.427 -63.559  1.00  0.00    -0.398 OA
HETATM   19  H28 UNK   900       4.815 -70.966 -64.336  1.00  0.00     0.209 HD
ENDBRANCH  17  18
ENDBRANCH  13  17
ENDBRANCH   8  13
BRANCH   1  20
HETATM   20  O1  UNK   900       6.830 -65.594 -63.571  1.00  0.00    -0.386 OA
HETATM   21  H19 UNK   900       6.652 -66.540 -63.441  1.00  0.00     0.210 HD
ENDBRANCH   1  20
BRANCH   3  22
HETATM   22  O2  UNK   900       6.752 -63.152 -64.756  1.00  0.00    -0.387 OA
HETATM   23  H20 UNK   900       7.044 -62.938 -63.854  1.00  0.00     0.210 HD
ENDBRANCH   3  22
BRANCH   4  24
HETATM   24  O3  UNK   900       6.431 -65.477 -60.598  1.00  0.00    -0.390 OA
HETATM   25  H21 UNK   900       6.566 -65.520 -59.636  1.00  0.00     0.210 HD
ENDBRANCH   4  24
TORSDOF 7
ENDMDL
MODEL 9
REMARK VINA RESULT:      -6.0     12.994     15.401
REMARK  7 active torsions:
REMARK  status: ('A' for Active; 'I' for Inactive)
REMARK    1  A    between atoms: O1_1  and  C1_6 
REMARK    2  A    between atoms: O2_2  and  C3_8 
REMARK    3  A    between atoms: O3_3  and  C4_9 
REMARK    4  A    between atoms: O4_4  and  C11_16 
REMARK    5  A    between atoms: O5_5  and  C14_19 
REMARK    6  A    between atoms: C8_13  and  C11_16 
REMARK    7  A    between atoms: C11_16  and  C14_19 
ROOT
HETATM    1  C1  UNK   900      31.520 -48.508 -60.753  1.00  0.00     0.095 C 
HETATM    2  C2  UNK   900      32.962 -48.876 -60.322  1.00  0.00     0.057 C 
HETATM    3  C3  UNK   900      30.742 -49.780 -60.300  1.00  0.00     0.085 C 
HETATM    4  C4  UNK   900      34.149 -48.015 -60.820  1.00  0.00     0.061 C 
HETATM    5  C5  UNK   900      31.336 -48.190 -62.255  1.00  0.00     0.049 C 
HETATM    6  C6  UNK   900      33.076 -50.390 -60.607  1.00  0.00     0.014 C 
HETATM    7  C7  UNK   900      31.646 -50.924 -60.757  1.00  0.00     0.041 C 
HETATM    8  C8  UNK   900      31.989 -46.873 -62.712  1.00  0.00     0.025 C 
HETATM    9  C9  UNK   900      34.326 -47.994 -62.349  1.00  0.00     0.038 C 
HETATM   10  C10 UNK   900      33.450 -47.027 -63.145  1.00  0.00     0.011 C 
HETATM   11  C12 UNK   900      29.310 -49.931 -60.800  1.00  0.00     0.049 C 
HETATM   12  C13 UNK   900      35.454 -48.527 -60.178  1.00  0.00     0.046 C 
ENDROOT
BRANCH   8  13
HETATM   13  C11 UNK   900      31.192 -46.259 -63.873  1.00  0.00     0.079 C 
HETATM   14  C15 UNK   900      31.673 -44.836 -64.145  1.00  0.00     0.048 C 
BRANCH  13  15
HETATM   15  O4  UNK   900      29.824 -46.181 -63.473  1.00  0.00    -0.388 OA
HETATM   16  H27 UNK   900      29.754 -46.546 -62.574  1.00  0.00     0.210 HD
ENDBRANCH  13  15
BRANCH  13  17
HETATM   17  C14 UNK   900      31.297 -47.152 -65.113  1.00  0.00     0.201 C 
BRANCH  17  18
HETATM   18  O5  UNK   900      30.004 -47.595 -65.511  1.00  0.00    -0.398 OA
HETATM   19  H28 UNK   900      29.841 -48.444 -65.066  1.00  0.00     0.209 HD
ENDBRANCH  17  18
ENDBRANCH  13  17
ENDBRANCH   8  13
BRANCH   1  20
HETATM   20  O1  UNK   900      31.067 -47.388 -59.990  1.00  0.00    -0.386 OA
HETATM   21  H19 UNK   900      31.794 -47.111 -59.408  1.00  0.00     0.210 HD
ENDBRANCH   1  20
BRANCH   3  22
HETATM   22  O2  UNK   900      30.693 -49.831 -58.866  1.00  0.00    -0.387 OA
HETATM   23  H20 UNK   900      31.112 -49.025 -58.520  1.00  0.00     0.210 HD
ENDBRANCH   3  22
BRANCH   4  24
HETATM   24  O3  UNK   900      33.963 -46.679 -60.340  1.00  0.00    -0.390 OA
HETATM   25  H21 UNK   900      33.246 -46.271 -60.853  1.00  0.00     0.210 HD
ENDBRANCH   4  24
TORSDOF 7
ENDMDL
