MODEL 1
REMARK VINA RESULT:      -6.4      0.000      0.000
REMARK  7 active torsions:
REMARK  status: ('A' for Active; 'I' for Inactive)
REMARK    1  A    between atoms: O1_1  and  C1_6 
REMARK    2  A    between atoms: O2_2  and  C2_7 
REMARK    3  A    between atoms: O3_3  and  C4_9 
REMARK    4  A    between atoms: O4_4  and  C11_16 
REMARK    5  A    between atoms: O5_5  and  C14_19 
REMARK    6  A    between atoms: C8_13  and  C11_16 
REMARK    7  A    between atoms: C11_16  and  C14_19 
ROOT
HETATM    1  C1  UNK   900       6.657 -66.666 -49.049  1.00  0.00     0.095 C 
HETATM    2  C2  UNK   900       7.916 -67.028 -49.885  1.00  0.00     0.119 C 
HETATM    3  C3  UNK   900       7.060 -67.216 -47.651  1.00  0.00     0.019 C 
HETATM    4  C4  UNK   900       7.857 -66.850 -51.433  1.00  0.00     0.088 C 
HETATM    5  C5  UNK   900       5.322 -67.251 -49.565  1.00  0.00     0.049 C 
HETATM    6  C6  UNK   900       8.250 -68.458 -49.401  1.00  0.00     0.044 C 
HETATM    7  C7  UNK   900       7.762 -68.544 -47.949  1.00  0.00     0.010 C 
HETATM    8  C8  UNK   900       4.809 -66.604 -50.863  1.00  0.00     0.025 C 
HETATM    9  C9  UNK   900       6.804 -67.728 -52.141  1.00  0.00     0.041 C 
HETATM   10  C10 UNK   900       5.353 -67.253 -52.138  1.00  0.00     0.011 C 
HETATM   11  C12 UNK   900       5.952 -67.363 -46.615  1.00  0.00     0.013 C 
HETATM   12  C13 UNK   900       9.226 -67.151 -52.082  1.00  0.00     0.049 C 
ENDROOT
BRANCH   8  13
HETATM   13  C11 UNK   900       3.274 -66.645 -50.905  1.00  0.00     0.079 C 
HETATM   14  C15 UNK   900       2.802 -67.916 -51.605  1.00  0.00     0.048 C 
BRANCH  13  15
HETATM   15  O4  UNK   900       2.800 -66.694 -49.559  1.00  0.00    -0.388 OA
HETATM   16  H27 UNK   900       2.591 -65.786 -49.279  1.00  0.00     0.210 HD
ENDBRANCH  13  15
BRANCH  13  17
HETATM   17  C14 UNK   900       2.732 -65.379 -51.576  1.00  0.00     0.201 C 
BRANCH  17  18
HETATM   18  O5  UNK   900       2.605 -65.583 -52.980  1.00  0.00    -0.398 OA
HETATM   19  H28 UNK   900       3.151 -66.355 -53.207  1.00  0.00     0.209 HD
ENDBRANCH  17  18
ENDBRANCH  13  17
ENDBRANCH   8  13
BRANCH   1  20
HETATM   20  O1  UNK   900       6.523 -65.246 -48.953  1.00  0.00    -0.386 OA
HETATM   21  H19 UNK   900       5.614 -65.049 -48.675  1.00  0.00     0.210 HD
ENDBRANCH   1  20
BRANCH   2  22
HETATM   22  O2  UNK   900       8.977 -66.169 -49.399  1.00  0.00    -0.384 OA
HETATM   23  H20 UNK   900       9.441 -66.625 -48.678  1.00  0.00     0.210 HD
ENDBRANCH   2  22
BRANCH   4  24
HETATM   24  O3  UNK   900       7.568 -65.480 -51.739  1.00  0.00    -0.387 OA
HETATM   25  H21 UNK   900       6.636 -65.420 -52.012  1.00  0.00     0.210 HD
ENDBRANCH   4  24
TORSDOF 7
ENDMDL
MODEL 2
REMARK VINA RESULT:      -5.8      2.377      5.407
REMARK  7 active torsions:
REMARK  status: ('A' for Active; 'I' for Inactive)
REMARK    1  A    between atoms: O1_1  and  C1_6 
REMARK    2  A    between atoms: O2_2  and  C2_7 
REMARK    3  A    between atoms: O3_3  and  C4_9 
REMARK    4  A    between atoms: O4_4  and  C11_16 
REMARK    5  A    between atoms: O5_5  and  C14_19 
REMARK    6  A    between atoms: C8_13  and  C11_16 
REMARK    7  A    between atoms: C11_16  and  C14_19 
ROOT
HETATM    1  C1  UNK   900       5.256 -69.359 -52.300  1.00  0.00     0.095 C 
HETATM    2  C2  UNK   900       3.942 -68.769 -51.716  1.00  0.00     0.119 C 
HETATM    3  C3  UNK   900       4.917 -70.876 -52.321  1.00  0.00     0.019 C 
HETATM    4  C4  UNK   900       3.920 -67.263 -51.310  1.00  0.00     0.088 C 
HETATM    5  C5  UNK   900       6.543 -69.039 -51.505  1.00  0.00     0.049 C 
HETATM    6  C6  UNK   900       3.596 -69.759 -50.580  1.00  0.00     0.044 C 
HETATM    7  C7  UNK   900       4.163 -71.119 -51.011  1.00  0.00     0.010 C 
HETATM    8  C8  UNK   900       7.000 -67.573 -51.607  1.00  0.00     0.025 C 
HETATM    9  C9  UNK   900       4.906 -66.885 -50.187  1.00  0.00     0.041 C 
HETATM   10  C10 UNK   900       6.368 -66.652 -50.561  1.00  0.00     0.011 C 
HETATM   11  C12 UNK   900       6.078 -71.846 -52.513  1.00  0.00     0.013 C 
HETATM   12  C13 UNK   900       2.508 -66.829 -50.857  1.00  0.00     0.049 C 
ENDROOT
BRANCH   8  13
HETATM   13  C11 UNK   900       8.529 -67.485 -51.482  1.00  0.00     0.079 C 
HETATM   14  C15 UNK   900       8.909 -66.672 -50.247  1.00  0.00     0.048 C 
BRANCH  13  15
HETATM   15  O4  UNK   900       9.031 -68.809 -51.295  1.00  0.00    -0.388 OA
HETATM   16  H27 UNK   900       8.773 -69.341 -52.068  1.00  0.00     0.210 HD
ENDBRANCH  13  15
BRANCH  13  17
HETATM   17  C14 UNK   900       9.129 -66.902 -52.765  1.00  0.00     0.201 C 
BRANCH  17  18
HETATM   18  O5  UNK   900       8.937 -65.492 -52.801  1.00  0.00    -0.398 OA
HETATM   19  H28 UNK   900       9.785 -65.095 -53.064  1.00  0.00     0.209 HD
ENDBRANCH  17  18
ENDBRANCH  13  17
ENDBRANCH   8  13
BRANCH   1  20
HETATM   20  O1  UNK   900       5.435 -68.918 -53.649  1.00  0.00    -0.386 OA
HETATM   21  H19 UNK   900       4.675 -68.360 -53.884  1.00  0.00     0.210 HD
ENDBRANCH   1  20
BRANCH   2  22
HETATM   22  O2  UNK   900       2.935 -68.947 -52.742  1.00  0.00    -0.384 OA
HETATM   23  H20 UNK   900       2.793 -69.899 -52.875  1.00  0.00     0.210 HD
ENDBRANCH   2  22
BRANCH   4  24
HETATM   24  O3  UNK   900       4.229 -66.461 -52.457  1.00  0.00    -0.387 OA
HETATM   25  H21 UNK   900       5.058 -66.792 -52.844  1.00  0.00     0.210 HD
ENDBRANCH   4  24
TORSDOF 7
ENDMDL
MODEL 3
REMARK VINA RESULT:      -5.5     27.221     28.997
REMARK  7 active torsions:
REMARK  status: ('A' for Active; 'I' for Inactive)
REMARK    1  A    between atoms: O1_1  and  C1_6 
REMARK    2  A    between atoms: O2_2  and  C2_7 
REMARK    3  A    between atoms: O3_3  and  C4_9 
REMARK    4  A    between atoms: O4_4  and  C11_16 
REMARK    5  A    between atoms: O5_5  and  C14_19 
REMARK    6  A    between atoms: C8_13  and  C11_16 
REMARK    7  A    between atoms: C11_16  and  C14_19 
ROOT
HETATM    1  C1  UNK   900       9.380 -50.896 -73.537  1.00  0.00     0.095 C 
HETATM    2  C2  UNK   900       8.943 -52.106 -74.409  1.00  0.00     0.119 C 
HETATM    3  C3  UNK   900      10.304 -51.595 -72.500  1.00  0.00     0.019 C 
HETATM    4  C4  UNK   900       7.813 -51.894 -75.463  1.00  0.00     0.088 C 
HETATM    5  C5  UNK   900       8.230 -50.098 -72.879  1.00  0.00     0.049 C 
HETATM    6  C6  UNK   900       8.661 -53.204 -73.357  1.00  0.00     0.044 C 
HETATM    7  C7  UNK   900       9.588 -52.907 -72.170  1.00  0.00     0.010 C 
HETATM    8  C8  UNK   900       7.400 -49.258 -73.864  1.00  0.00     0.025 C 
HETATM    9  C9  UNK   900       6.450 -51.485 -74.869  1.00  0.00     0.041 C 
HETATM   10  C10 UNK   900       6.236 -50.018 -74.502  1.00  0.00     0.011 C 
HETATM   11  C12 UNK   900      10.672 -50.803 -71.251  1.00  0.00     0.013 C 
HETATM   12  C13 UNK   900       7.591 -53.168 -76.306  1.00  0.00     0.049 C 
ENDROOT
BRANCH   8  13
HETATM   13  C11 UNK   900       6.847 -48.008 -73.161  1.00  0.00     0.079 C 
HETATM   14  C15 UNK   900       5.437 -48.279 -72.644  1.00  0.00     0.048 C 
BRANCH  13  15
HETATM   15  O4  UNK   900       7.675 -47.741 -72.029  1.00  0.00    -0.388 OA
HETATM   16  H27 UNK   900       7.625 -46.788 -71.837  1.00  0.00     0.210 HD
ENDBRANCH  13  15
BRANCH  13  17
HETATM   17  C14 UNK   900       6.897 -46.806 -74.109  1.00  0.00     0.201 C 
BRANCH  17  18
HETATM   18  O5  UNK   900       7.818 -47.051 -75.166  1.00  0.00    -0.398 OA
HETATM   19  H28 UNK   900       7.617 -47.933 -75.522  1.00  0.00     0.209 HD
ENDBRANCH  17  18
ENDBRANCH  13  17
ENDBRANCH   8  13
BRANCH   1  20
HETATM   20  O1  UNK   900      10.173 -49.994 -74.312  1.00  0.00    -0.386 OA
HETATM   21  H19 UNK   900      10.843 -50.514 -74.785  1.00  0.00     0.210 HD
ENDBRANCH   1  20
BRANCH   2  22
HETATM   22  O2  UNK   900      10.127 -52.522 -75.134  1.00  0.00    -0.384 OA
HETATM   23  H20 UNK   900       9.900 -53.287 -75.687  1.00  0.00     0.210 HD
ENDBRANCH   2  22
BRANCH   4  24
HETATM   24  O3  UNK   900       8.216 -50.875 -76.387  1.00  0.00    -0.387 OA
HETATM   25  H21 UNK   900       7.416 -50.432 -76.719  1.00  0.00     0.210 HD
ENDBRANCH   4  24
TORSDOF 7
ENDMDL
MODEL 4
REMARK VINA RESULT:      -5.4     37.757     38.895
REMARK  7 active torsions:
REMARK  status: ('A' for Active; 'I' for Inactive)
REMARK    1  A    between atoms: O1_1  and  C1_6 
REMARK    2  A    between atoms: O2_2  and  C2_7 
REMARK    3  A    between atoms: O3_3  and  C4_9 
REMARK    4  A    between atoms: O4_4  and  C11_16 
REMARK    5  A    between atoms: O5_5  and  C14_19 
REMARK    6  A    between atoms: C8_13  and  C11_16 
REMARK    7  A    between atoms: C11_16  and  C14_19 
ROOT
HETATM    1  C1  UNK   900      22.293 -30.886 -49.510  1.00  0.00     0.095 C 
HETATM    2  C2  UNK   900      23.787 -30.912 -49.083  1.00  0.00     0.119 C 
HETATM    3  C3  UNK   900      22.176 -29.450 -50.097  1.00  0.00     0.019 C 
HETATM    4  C4  UNK   900      24.295 -32.114 -48.229  1.00  0.00     0.088 C 
HETATM    5  C5  UNK   900      21.271 -31.162 -48.383  1.00  0.00     0.049 C 
HETATM    6  C6  UNK   900      23.984 -29.520 -48.438  1.00  0.00     0.044 C 
HETATM    7  C7  UNK   900      22.998 -28.578 -49.143  1.00  0.00     0.010 C 
HETATM    8  C8  UNK   900      21.244 -32.622 -47.899  1.00  0.00     0.025 C 
HETATM    9  C9  UNK   900      23.619 -32.254 -46.851  1.00  0.00     0.041 C 
HETATM   10  C10 UNK   900      22.249 -32.926 -46.786  1.00  0.00     0.011 C 
HETATM   11  C12 UNK   900      20.771 -28.902 -50.321  1.00  0.00     0.013 C 
HETATM   12  C13 UNK   900      25.819 -32.026 -47.995  1.00  0.00     0.049 C 
ENDROOT
BRANCH   8  13
HETATM   13  C11 UNK   900      19.836 -32.992 -47.407  1.00  0.00     0.079 C 
HETATM   14  C15 UNK   900      19.309 -31.913 -46.466  1.00  0.00     0.048 C 
BRANCH  13  15
HETATM   15  O4  UNK   900      18.972 -33.031 -48.543  1.00  0.00    -0.388 OA
HETATM   16  H27 UNK   900      19.095 -33.888 -48.988  1.00  0.00     0.210 HD
ENDBRANCH  13  15
BRANCH  13  17
HETATM   17  C14 UNK   900      19.856 -34.375 -46.750  1.00  0.00     0.201 C 
BRANCH  17  18
HETATM   18  O5  UNK   900      18.914 -34.426 -45.683  1.00  0.00    -0.398 OA
HETATM   19  H28 UNK   900      19.416 -34.584 -44.866  1.00  0.00     0.209 HD
ENDBRANCH  17  18
ENDBRANCH  13  17
ENDBRANCH   8  13
BRANCH   1  20
HETATM   20  O1  UNK   900      22.068 -31.824 -50.566  1.00  0.00    -0.386 OA
HETATM   21  H19 UNK   900      21.109 -31.916 -50.686  1.00  0.00     0.210 HD
ENDBRANCH   1  20
BRANCH   2  22
HETATM   22  O2  UNK   900      24.553 -30.910 -50.313  1.00  0.00    -0.384 OA
HETATM   23  H20 UNK   900      24.130 -30.302 -50.941  1.00  0.00     0.210 HD
ENDBRANCH   2  22
BRANCH   4  24
HETATM   24  O3  UNK   900      24.077 -33.332 -48.954  1.00  0.00    -0.387 OA
HETATM   25  H21 UNK   900      23.258 -33.739 -48.624  1.00  0.00     0.210 HD
ENDBRANCH   4  24
TORSDOF 7
ENDMDL
MODEL 5
REMARK VINA RESULT:      -5.3      2.650      5.517
REMARK  7 active torsions:
REMARK  status: ('A' for Active; 'I' for Inactive)
REMARK    1  A    between atoms: O1_1  and  C1_6 
REMARK    2  A    between atoms: O2_2  and  C2_7 
REMARK    3  A    between atoms: O3_3  and  C4_9 
REMARK    4  A    between atoms: O4_4  and  C11_16 
REMARK    5  A    between atoms: O5_5  and  C14_19 
REMARK    6  A    between atoms: C8_13  and  C11_16 
REMARK    7  A    between atoms: C11_16  and  C14_19 
ROOT
HETATM    1  C1  UNK   900       7.424 -69.611 -50.693  1.00  0.00     0.095 C 
HETATM    2  C2  UNK   900       6.877 -68.269 -51.255  1.00  0.00     0.119 C 
HETATM    3  C3  UNK   900       6.669 -70.637 -51.585  1.00  0.00     0.019 C 
HETATM    4  C4  UNK   900       7.210 -66.952 -50.489  1.00  0.00     0.088 C 
HETATM    5  C5  UNK   900       7.198 -69.844 -49.181  1.00  0.00     0.049 C 
HETATM    6  C6  UNK   900       5.369 -68.561 -51.433  1.00  0.00     0.044 C 
HETATM    7  C7  UNK   900       5.254 -70.066 -51.713  1.00  0.00     0.010 C 
HETATM    8  C8  UNK   900       8.062 -68.957 -48.269  1.00  0.00     0.025 C 
HETATM    9  C9  UNK   900       6.656 -66.886 -49.052  1.00  0.00     0.041 C 
HETATM   10  C10 UNK   900       7.435 -67.599 -47.947  1.00  0.00     0.011 C 
HETATM   11  C12 UNK   900       6.670 -72.091 -51.126  1.00  0.00     0.013 C 
HETATM   12  C13 UNK   900       6.680 -65.717 -51.250  1.00  0.00     0.049 C 
ENDROOT
BRANCH   8  13
HETATM   13  C11 UNK   900       8.363 -69.686 -46.950  1.00  0.00     0.079 C 
HETATM   14  C15 UNK   900       8.017 -71.167 -47.078  1.00  0.00     0.048 C 
BRANCH  13  15
HETATM   15  O4  UNK   900       9.767 -69.593 -46.709  1.00  0.00    -0.388 OA
HETATM   16  H27 UNK   900      10.164 -70.461 -46.898  1.00  0.00     0.210 HD
ENDBRANCH  13  15
BRANCH  13  17
HETATM   17  C14 UNK   900       7.614 -69.013 -45.796  1.00  0.00     0.201 C 
BRANCH  17  18
HETATM   18  O5  UNK   900       8.422 -69.008 -44.623  1.00  0.00    -0.398 OA
HETATM   19  H28 UNK   900       8.353 -69.893 -44.224  1.00  0.00     0.209 HD
ENDBRANCH  17  18
ENDBRANCH  13  17
ENDBRANCH   8  13
BRANCH   1  20
HETATM   20  O1  UNK   900       8.824 -69.722 -50.964  1.00  0.00    -0.386 OA
HETATM   21  H19 UNK   900       9.277 -69.917 -50.127  1.00  0.00     0.210 HD
ENDBRANCH   1  20
BRANCH   2  22
HETATM   22  O2  UNK   900       7.433 -68.139 -52.586  1.00  0.00    -0.384 OA
HETATM   23  H20 UNK   900       8.259 -68.650 -52.629  1.00  0.00     0.210 HD
ENDBRANCH   2  22
BRANCH   4  24
HETATM   24  O3  UNK   900       8.633 -66.793 -50.422  1.00  0.00    -0.387 OA
HETATM   25  H21 UNK   900       9.045 -67.551 -50.872  1.00  0.00     0.210 HD
ENDBRANCH   4  24
TORSDOF 7
ENDMDL
MODEL 6
REMARK VINA RESULT:      -5.3      2.240      5.159
REMARK  7 active torsions:
REMARK  status: ('A' for Active; 'I' for Inactive)
REMARK    1  A    between atoms: O1_1  and  C1_6 
REMARK    2  A    between atoms: O2_2  and  C2_7 
REMARK    3  A    between atoms: O3_3  and  C4_9 
REMARK    4  A    between atoms: O4_4  and  C11_16 
REMARK    5  A    between atoms: O5_5  and  C14_19 
REMARK    6  A    between atoms: C8_13  and  C11_16 
REMARK    7  A    between atoms: C11_16  and  C14_19 
ROOT
HETATM    1  C1  UNK   900       6.331 -69.077 -51.251  1.00  0.00     0.095 C 
HETATM    2  C2  UNK   900       4.992 -68.455 -51.736  1.00  0.00     0.119 C 
HETATM    3  C3  UNK   900       6.164 -70.549 -51.727  1.00  0.00     0.019 C 
HETATM    4  C4  UNK   900       4.632 -67.011 -51.269  1.00  0.00     0.088 C 
HETATM    5  C5  UNK   900       6.612 -68.961 -49.735  1.00  0.00     0.049 C 
HETATM    6  C6  UNK   900       3.956 -69.541 -51.368  1.00  0.00     0.044 C 
HETATM    7  C7  UNK   900       4.699 -70.882 -51.434  1.00  0.00     0.010 C 
HETATM    8  C8  UNK   900       6.951 -67.537 -49.263  1.00  0.00     0.025 C 
HETATM    9  C9  UNK   900       4.465 -66.852 -49.744  1.00  0.00     0.041 C 
HETATM   10  C10 UNK   900       5.726 -66.697 -48.895  1.00  0.00     0.011 C 
HETATM   11  C12 UNK   900       7.123 -71.581 -51.145  1.00  0.00     0.013 C 
HETATM   12  C13 UNK   900       3.327 -66.519 -51.933  1.00  0.00     0.049 C 
ENDROOT
BRANCH   8  13
HETATM   13  C11 UNK   900       7.894 -67.590 -48.052  1.00  0.00     0.079 C 
HETATM   14  C15 UNK   900       8.531 -68.973 -47.942  1.00  0.00     0.048 C 
BRANCH  13  15
HETATM   15  O4  UNK   900       8.946 -66.650 -48.275  1.00  0.00    -0.388 OA
HETATM   16  H27 UNK   900       9.307 -66.807 -49.164  1.00  0.00     0.210 HD
ENDBRANCH  13  15
BRANCH  13  17
HETATM   17  C14 UNK   900       7.138 -67.198 -46.779  1.00  0.00     0.201 C 
BRANCH  17  18
HETATM   18  O5  UNK   900       7.777 -67.756 -45.636  1.00  0.00    -0.398 OA
HETATM   19  H28 UNK   900       7.139 -68.358 -45.217  1.00  0.00     0.209 HD
ENDBRANCH  17  18
ENDBRANCH  13  17
ENDBRANCH   8  13
BRANCH   1  20
HETATM   20  O1  UNK   900       7.428 -68.496 -51.962  1.00  0.00    -0.386 OA
HETATM   21  H19 UNK   900       8.150 -69.146 -51.982  1.00  0.00     0.210 HD
ENDBRANCH   1  20
BRANCH   2  22
HETATM   22  O2  UNK   900       5.067 -68.426 -53.183  1.00  0.00    -0.384 OA
HETATM   23  H20 UNK   900       4.399 -69.035 -53.540  1.00  0.00     0.210 HD
ENDBRANCH   2  22
BRANCH   4  24
HETATM   24  O3  UNK   900       5.658 -66.107 -51.698  1.00  0.00    -0.387 OA
HETATM   25  H21 UNK   900       5.347 -65.653 -52.500  1.00  0.00     0.210 HD
ENDBRANCH   4  24
TORSDOF 7
ENDMDL
MODEL 7
REMARK VINA RESULT:      -5.2     11.656     14.725
REMARK  7 active torsions:
REMARK  status: ('A' for Active; 'I' for Inactive)
REMARK    1  A    between atoms: O1_1  and  C1_6 
REMARK    2  A    between atoms: O2_2  and  C2_7 
REMARK    3  A    between atoms: O3_3  and  C4_9 
REMARK    4  A    between atoms: O4_4  and  C11_16 
REMARK    5  A    between atoms: O5_5  and  C14_19 
REMARK    6  A    between atoms: C8_13  and  C11_16 
REMARK    7  A    between atoms: C11_16  and  C14_19 
ROOT
HETATM    1  C1  UNK   900      17.981 -72.370 -53.273  1.00  0.00     0.095 C 
HETATM    2  C2  UNK   900      16.777 -73.041 -52.556  1.00  0.00     0.119 C 
HETATM    3  C3  UNK   900      17.938 -73.079 -54.656  1.00  0.00     0.019 C 
HETATM    4  C4  UNK   900      16.579 -72.779 -51.031  1.00  0.00     0.088 C 
HETATM    5  C5  UNK   900      19.347 -72.515 -52.562  1.00  0.00     0.049 C 
HETATM    6  C6  UNK   900      16.927 -74.528 -52.952  1.00  0.00     0.044 C 
HETATM    7  C7  UNK   900      17.607 -74.538 -54.328  1.00  0.00     0.010 C 
HETATM    8  C8  UNK   900      19.480 -71.685 -51.274  1.00  0.00     0.025 C 
HETATM    9  C9  UNK   900      17.733 -73.277 -50.139  1.00  0.00     0.041 C 
HETATM   10  C10 UNK   900      18.979 -72.402 -50.018  1.00  0.00     0.011 C 
HETATM   11  C12 UNK   900      19.170 -72.948 -55.544  1.00  0.00     0.013 C 
HETATM   12  C13 UNK   900      15.277 -73.433 -50.518  1.00  0.00     0.049 C 
ENDROOT
BRANCH   8  13
HETATM   13  C11 UNK   900      20.945 -71.276 -51.056  1.00  0.00     0.079 C 
HETATM   14  C15 UNK   900      21.785 -72.500 -50.702  1.00  0.00     0.048 C 
BRANCH  13  15
HETATM   15  O4  UNK   900      21.443 -70.757 -52.290  1.00  0.00    -0.388 OA
HETATM   16  H27 UNK   900      20.815 -70.085 -52.610  1.00  0.00     0.210 HD
ENDBRANCH  13  15
BRANCH  13  17
HETATM   17  C14 UNK   900      21.032 -70.184 -49.986  1.00  0.00     0.201 C 
BRANCH  17  18
HETATM   18  O5  UNK   900      21.521 -68.974 -50.557  1.00  0.00    -0.398 OA
HETATM   19  H28 UNK   900      20.946 -68.256 -50.242  1.00  0.00     0.209 HD
ENDBRANCH  17  18
ENDBRANCH  13  17
ENDBRANCH   8  13
BRANCH   1  20
HETATM   20  O1  UNK   900      17.720 -70.978 -53.472  1.00  0.00    -0.386 OA
HETATM   21  H19 UNK   900      17.405 -70.609 -52.631  1.00  0.00     0.210 HD
ENDBRANCH   1  20
BRANCH   2  22
HETATM   22  O2  UNK   900      15.590 -72.551 -53.229  1.00  0.00    -0.384 OA
HETATM   23  H20 UNK   900      15.773 -71.662 -53.573  1.00  0.00     0.210 HD
ENDBRANCH   2  22
BRANCH   4  24
HETATM   24  O3  UNK   900      16.426 -71.371 -50.811  1.00  0.00    -0.387 OA
HETATM   25  H21 UNK   900      16.425 -70.927 -51.677  1.00  0.00     0.210 HD
ENDBRANCH   4  24
TORSDOF 7
ENDMDL
MODEL 8
REMARK VINA RESULT:      -5.1     16.839     19.635
REMARK  7 active torsions:
REMARK  status: ('A' for Active; 'I' for Inactive)
REMARK    1  A    between atoms: O1_1  and  C1_6 
REMARK    2  A    between atoms: O2_2  and  C2_7 
REMARK    3  A    between atoms: O3_3  and  C4_9 
REMARK    4  A    between atoms: O4_4  and  C11_16 
REMARK    5  A    between atoms: O5_5  and  C14_19 
REMARK    6  A    between atoms: C8_13  and  C11_16 
REMARK    7  A    between atoms: C11_16  and  C14_19 
ROOT
HETATM    1  C1  UNK   900      22.863 -72.421 -55.356  1.00  0.00     0.095 C 
HETATM    2  C2  UNK   900      22.166 -71.949 -56.663  1.00  0.00     0.119 C 
HETATM    3  C3  UNK   900      21.631 -72.736 -54.461  1.00  0.00     0.019 C 
HETATM    4  C4  UNK   900      23.044 -71.315 -57.786  1.00  0.00     0.088 C 
HETATM    5  C5  UNK   900      23.833 -71.404 -54.712  1.00  0.00     0.049 C 
HETATM    6  C6  UNK   900      21.022 -71.052 -56.138  1.00  0.00     0.044 C 
HETATM    7  C7  UNK   900      20.640 -71.608 -54.760  1.00  0.00     0.010 C 
HETATM    8  C8  UNK   900      25.143 -71.200 -55.492  1.00  0.00     0.025 C 
HETATM    9  C9  UNK   900      23.762 -70.012 -57.379  1.00  0.00     0.041 C 
HETATM   10  C10 UNK   900      25.058 -70.124 -56.578  1.00  0.00     0.011 C 
HETATM   11  C12 UNK   900      21.883 -72.908 -52.967  1.00  0.00     0.013 C 
HETATM   12  C13 UNK   900      22.204 -71.010 -59.045  1.00  0.00     0.049 C 
ENDROOT
BRANCH   8  13
HETATM   13  C11 UNK   900      26.283 -70.838 -54.529  1.00  0.00     0.079 C 
HETATM   14  C15 UNK   900      27.460 -71.791 -54.727  1.00  0.00     0.048 C 
BRANCH  13  15
HETATM   15  O4  UNK   900      26.735 -69.524 -54.859  1.00  0.00    -0.388 OA
HETATM   16  H27 UNK   900      26.732 -69.438 -55.828  1.00  0.00     0.210 HD
ENDBRANCH  13  15
BRANCH  13  17
HETATM   17  C14 UNK   900      25.773 -70.841 -53.085  1.00  0.00     0.201 C 
BRANCH  17  18
HETATM   18  O5  UNK   900      25.772 -69.517 -52.562  1.00  0.00    -0.398 OA
HETATM   19  H28 UNK   900      24.869 -69.170 -52.660  1.00  0.00     0.209 HD
ENDBRANCH  17  18
ENDBRANCH  13  17
ENDBRANCH   8  13
BRANCH   1  20
HETATM   20  O1  UNK   900      23.573 -73.640 -55.591  1.00  0.00    -0.386 OA
HETATM   21  H19 UNK   900      23.198 -74.322 -55.009  1.00  0.00     0.210 HD
ENDBRANCH   1  20
BRANCH   2  22
HETATM   22  O2  UNK   900      21.542 -73.128 -57.229  1.00  0.00    -0.384 OA
HETATM   23  H20 UNK   900      21.362 -72.964 -58.169  1.00  0.00     0.210 HD
ENDBRANCH   2  22
BRANCH   4  24
HETATM   24  O3  UNK   900      24.041 -72.259 -58.195  1.00  0.00    -0.387 OA
HETATM   25  H21 UNK   900      24.860 -71.772 -58.390  1.00  0.00     0.210 HD
ENDBRANCH   4  24
TORSDOF 7
ENDMDL
MODEL 9
REMARK VINA RESULT:      -5.1     49.679     51.685
REMARK  7 active torsions:
REMARK  status: ('A' for Active; 'I' for Inactive)
REMARK    1  A    between atoms: O1_1  and  C1_6 
REMARK    2  A    between atoms: O2_2  and  C2_7 
REMARK    3  A    between atoms: O3_3  and  C4_9 
REMARK    4  A    between atoms: O4_4  and  C11_16 
REMARK    5  A    between atoms: O5_5  and  C14_19 
REMARK    6  A    between atoms: C8_13  and  C11_16 
REMARK    7  A    between atoms: C11_16  and  C14_19 
ROOT
HETATM    1  C1  UNK   900      10.745 -44.138 -97.386  1.00  0.00     0.095 C 
HETATM    2  C2  UNK   900       9.999 -43.320 -96.295  1.00  0.00     0.119 C 
HETATM    3  C3  UNK   900      10.574 -43.209 -98.622  1.00  0.00     0.019 C 
HETATM    4  C4  UNK   900       9.730 -43.995 -94.915  1.00  0.00     0.088 C 
HETATM    5  C5  UNK   900      10.213 -45.569 -97.628  1.00  0.00     0.049 C 
HETATM    6  C6  UNK   900       8.739 -42.823 -97.040  1.00  0.00     0.044 C 
HETATM    7  C7  UNK   900       9.138 -42.689 -98.515  1.00  0.00     0.010 C 
HETATM    8  C8  UNK   900      10.519 -46.558 -96.491  1.00  0.00     0.025 C 
HETATM    9  C9  UNK   900       8.829 -45.244 -94.976  1.00  0.00     0.041 C 
HETATM   10  C10 UNK   900       9.466 -46.572 -95.380  1.00  0.00     0.011 C 
HETATM   11  C12 UNK   900      10.875 -43.810 -99.990  1.00  0.00     0.013 C 
HETATM   12  C13 UNK   900       9.082 -43.001 -93.926  1.00  0.00     0.049 C 
ENDROOT
BRANCH   8  13
HETATM   13  C11 UNK   900      10.665 -47.981 -97.050  1.00  0.00     0.079 C 
HETATM   14  C15 UNK   900       9.812 -48.953 -96.240  1.00  0.00     0.048 C 
BRANCH  13  15
HETATM   15  O4  UNK   900      10.163 -47.980 -98.387  1.00  0.00    -0.388 OA
HETATM   16  H27 UNK   900      10.868 -48.302 -98.975  1.00  0.00     0.210 HD
ENDBRANCH  13  15
BRANCH  13  17
HETATM   17  C14 UNK   900      12.141 -48.388 -97.074  1.00  0.00     0.201 C 
BRANCH  17  18
HETATM   18  O5  UNK   900      12.966 -47.265 -96.781  1.00  0.00    -0.398 OA
HETATM   19  H28 UNK   900      12.879 -47.086 -95.829  1.00  0.00     0.209 HD
ENDBRANCH  17  18
ENDBRANCH  13  17
ENDBRANCH   8  13
BRANCH   1  20
HETATM   20  O1  UNK   900      12.138 -44.218 -97.072  1.00  0.00    -0.386 OA
HETATM   21  H19 UNK   900      12.412 -43.362 -96.704  1.00  0.00     0.210 HD
ENDBRANCH   1  20
BRANCH   2  22
HETATM   22  O2  UNK   900      10.819 -42.152 -96.044  1.00  0.00    -0.384 OA
HETATM   23  H20 UNK   900      11.627 -42.218 -96.579  1.00  0.00     0.210 HD
ENDBRANCH   2  22
BRANCH   4  24
HETATM   24  O3  UNK   900      10.979 -44.379 -94.327  1.00  0.00    -0.387 OA
HETATM   25  H21 UNK   900      11.339 -45.125 -94.837  1.00  0.00     0.210 HD
ENDBRANCH   4  24
TORSDOF 7
ENDMDL
