MODEL 1
REMARK VINA RESULT:      -5.9      0.000      0.000
REMARK  7 active torsions:
REMARK  status: ('A' for Active; 'I' for Inactive)
REMARK    1  A    between atoms: O1_1  and  C6_10 
REMARK    2  A    between atoms: O3_3  and  C12_16 
REMARK    3  A    between atoms: C1_5  and  C4_8 
REMARK    4  A    between atoms: C2_6  and  C6_10 
REMARK    5  A    between atoms: C3_7  and  C5_9 
REMARK    6  A    between atoms: C5_9  and  C10_14 
REMARK    7  A    between atoms: C10_14  and  C14_18 
ROOT
HETATM    1  C1  UNK   900      30.209 -46.844 -62.747  1.00  0.00     0.006 A 
HETATM    2  C2  UNK   900      30.302 -47.472 -64.121  1.00  0.00    -0.014 A 
HETATM    3  C3  UNK   900      29.566 -48.179 -62.989  1.00  0.00     0.002 A 
HETATM    4  C7  UNK   900      31.608 -48.016 -64.642  1.00  0.00     0.018 C 
ENDROOT
BRANCH   1   5
HETATM    5  C4  UNK   900      31.406 -46.676 -61.850  1.00  0.00     0.001 C 
HETATM    6  C8  UNK   900      32.519 -45.801 -62.468  1.00  0.00     0.010 C 
HETATM    7  C11 UNK   900      33.662 -45.668 -61.455  1.00  0.00     0.175 C 
HETATM    8  C13 UNK   900      32.041 -44.407 -62.899  1.00  0.00     0.012 C 
HETATM    9  O2  UNK   900      33.203 -45.126 -60.216  1.00  0.00    -0.361 OA
HETATM   10  C12 UNK   900      32.222 -45.938 -59.568  1.00  0.00     0.257 C 
HETATM   11  C9  UNK   900      31.002 -46.153 -60.463  1.00  0.00     0.066 C 
BRANCH  10  12
HETATM   12  O3  UNK   900      32.743 -47.201 -59.164  1.00  0.00    -0.371 OA
HETATM   13  H23 UNK   900      32.021 -47.681 -58.724  1.00  0.00     0.212 HD
ENDBRANCH  10  12
ENDBRANCH   1   5
BRANCH   2  14
HETATM   14  C6  UNK   900      29.453 -46.847 -65.201  1.00  0.00     0.173 C 
BRANCH  14  15
HETATM   15  O1  UNK   900      29.806 -47.418 -66.445  1.00  0.00    -0.400 OA
HETATM   16  H22 UNK   900      29.974 -46.684 -67.061  1.00  0.00     0.209 HD
ENDBRANCH  14  15
ENDBRANCH   2  14
BRANCH   3  17
HETATM   17  C5  UNK   900      30.043 -49.449 -62.373  1.00  0.00     0.013 C 
BRANCH  17  18
HETATM   18  C10 UNK   900      29.457 -49.665 -60.978  1.00  0.00     0.078 C 
BRANCH  18  19
HETATM   19  C14 UNK   900      30.523 -49.851 -59.912  1.00  0.00     0.123 C 
HETATM   20  O4  UNK   900      30.489 -49.276 -58.826  1.00  0.00    -0.298 OA
HETATM   21  C15 UNK   900      31.647 -50.793 -60.258  1.00  0.00     0.091 C 
ENDBRANCH  18  19
ENDBRANCH  17  18
ENDBRANCH   3  17
TORSDOF 7
ENDMDL
MODEL 2
REMARK VINA RESULT:      -5.5      1.621      4.638
REMARK  7 active torsions:
REMARK  status: ('A' for Active; 'I' for Inactive)
REMARK    1  A    between atoms: O1_1  and  C6_10 
REMARK    2  A    between atoms: O3_3  and  C12_16 
REMARK    3  A    between atoms: C1_5  and  C4_8 
REMARK    4  A    between atoms: C2_6  and  C6_10 
REMARK    5  A    between atoms: C3_7  and  C5_9 
REMARK    6  A    between atoms: C5_9  and  C10_14 
REMARK    7  A    between atoms: C10_14  and  C14_18 
ROOT
HETATM    1  C1  UNK   900      30.922 -46.251 -61.981  1.00  0.00     0.006 A 
HETATM    2  C2  UNK   900      31.691 -45.782 -63.196  1.00  0.00    -0.014 A 
HETATM    3  C3  UNK   900      30.217 -46.152 -63.302  1.00  0.00     0.002 A 
HETATM    4  C7  UNK   900      32.745 -46.651 -63.835  1.00  0.00     0.018 C 
ENDROOT
BRANCH   1   5
HETATM    5  C4  UNK   900      31.194 -47.571 -61.309  1.00  0.00     0.001 C 
HETATM    6  C8  UNK   900      32.376 -47.522 -60.315  1.00  0.00     0.010 C 
HETATM    7  C11 UNK   900      32.532 -48.903 -59.667  1.00  0.00     0.175 C 
HETATM    8  C13 UNK   900      32.223 -46.450 -59.227  1.00  0.00     0.012 C 
HETATM    9  O2  UNK   900      31.327 -49.317 -59.022  1.00  0.00    -0.361 OA
HETATM   10  C12 UNK   900      30.219 -49.448 -59.914  1.00  0.00     0.257 C 
HETATM   11  C9  UNK   900      29.932 -48.131 -60.636  1.00  0.00     0.066 C 
BRANCH  10  12
HETATM   12  O3  UNK   900      30.413 -50.483 -60.874  1.00  0.00    -0.371 OA
HETATM   13  H23 UNK   900      30.562 -50.052 -61.733  1.00  0.00     0.212 HD
ENDBRANCH  10  12
ENDBRANCH   1   5
BRANCH   2  14
HETATM   14  C6  UNK   900      32.031 -44.312 -63.247  1.00  0.00     0.173 C 
BRANCH  14  15
HETATM   15  O1  UNK   900      32.399 -43.885 -61.951  1.00  0.00    -0.400 OA
HETATM   16  H22 UNK   900      32.132 -42.954 -61.868  1.00  0.00     0.209 HD
ENDBRANCH  14  15
ENDBRANCH   2  14
BRANCH   3  17
HETATM   17  C5  UNK   900      29.723 -47.332 -64.066  1.00  0.00     0.013 C 
BRANCH  17  18
HETATM   18  C10 UNK   900      28.792 -46.928 -65.208  1.00  0.00     0.078 C 
BRANCH  18  19
HETATM   19  C14 UNK   900      29.361 -45.811 -66.065  1.00  0.00     0.123 C 
HETATM   20  O4  UNK   900      28.974 -44.646 -65.988  1.00  0.00    -0.298 OA
HETATM   21  C15 UNK   900      30.444 -46.206 -67.035  1.00  0.00     0.091 C 
ENDBRANCH  18  19
ENDBRANCH  17  18
ENDBRANCH   3  17
TORSDOF 7
ENDMDL
MODEL 3
REMARK VINA RESULT:      -5.4      2.511      3.835
REMARK  7 active torsions:
REMARK  status: ('A' for Active; 'I' for Inactive)
REMARK    1  A    between atoms: O1_1  and  C6_10 
REMARK    2  A    between atoms: O3_3  and  C12_16 
REMARK    3  A    between atoms: C1_5  and  C4_8 
REMARK    4  A    between atoms: C2_6  and  C6_10 
REMARK    5  A    between atoms: C3_7  and  C5_9 
REMARK    6  A    between atoms: C5_9  and  C10_14 
REMARK    7  A    between atoms: C10_14  and  C14_18 
ROOT
HETATM    1  C1  UNK   900      31.456 -48.563 -60.463  1.00  0.00     0.006 A 
HETATM    2  C2  UNK   900      30.940 -49.796 -61.172  1.00  0.00    -0.014 A 
HETATM    3  C3  UNK   900      32.046 -49.902 -60.129  1.00  0.00     0.002 A 
HETATM    4  C7  UNK   900      31.238 -50.038 -62.630  1.00  0.00     0.018 C 
ENDROOT
BRANCH   1   5
HETATM    5  C4  UNK   900      32.241 -47.490 -61.170  1.00  0.00     0.001 C 
HETATM    6  C8  UNK   900      31.400 -46.680 -62.181  1.00  0.00     0.010 C 
HETATM    7  C11 UNK   900      32.289 -45.598 -62.806  1.00  0.00     0.175 C 
HETATM    8  C13 UNK   900      30.148 -46.037 -61.569  1.00  0.00     0.012 C 
HETATM    9  O2  UNK   900      32.859 -44.750 -61.808  1.00  0.00    -0.361 OA
HETATM   10  C12 UNK   900      33.705 -45.442 -60.889  1.00  0.00     0.257 C 
HETATM   11  C9  UNK   900      32.947 -46.559 -60.172  1.00  0.00     0.066 C 
BRANCH  10  12
HETATM   12  O3  UNK   900      34.864 -45.982 -61.517  1.00  0.00    -0.371 OA
HETATM   13  H23 UNK   900      35.108 -46.785 -61.027  1.00  0.00     0.212 HD
ENDBRANCH  10  12
ENDBRANCH   1   5
BRANCH   2  14
HETATM   14  C6  UNK   900      29.569 -50.278 -60.765  1.00  0.00     0.173 C 
BRANCH  14  15
HETATM   15  O1  UNK   900      28.618 -49.774 -61.682  1.00  0.00    -0.400 OA
HETATM   16  H22 UNK   900      28.560 -50.410 -62.415  1.00  0.00     0.209 HD
ENDBRANCH  14  15
ENDBRANCH   2  14
BRANCH   3  17
HETATM   17  C5  UNK   900      33.445 -50.294 -60.458  1.00  0.00     0.013 C 
BRANCH  17  18
HETATM   18  C10 UNK   900      33.903 -51.513 -59.658  1.00  0.00     0.078 C 
BRANCH  18  19
HETATM   19  C14 UNK   900      35.259 -52.034 -60.101  1.00  0.00     0.123 C 
HETATM   20  O4  UNK   900      35.789 -53.025 -59.603  1.00  0.00    -0.298 OA
HETATM   21  C15 UNK   900      35.937 -51.262 -61.203  1.00  0.00     0.091 C 
ENDBRANCH  18  19
ENDBRANCH  17  18
ENDBRANCH   3  17
TORSDOF 7
ENDMDL
MODEL 4
REMARK VINA RESULT:      -5.4      1.813      4.277
REMARK  7 active torsions:
REMARK  status: ('A' for Active; 'I' for Inactive)
REMARK    1  A    between atoms: O1_1  and  C6_10 
REMARK    2  A    between atoms: O3_3  and  C12_16 
REMARK    3  A    between atoms: C1_5  and  C4_8 
REMARK    4  A    between atoms: C2_6  and  C6_10 
REMARK    5  A    between atoms: C3_7  and  C5_9 
REMARK    6  A    between atoms: C5_9  and  C10_14 
REMARK    7  A    between atoms: C10_14  and  C14_18 
ROOT
HETATM    1  C1  UNK   900      29.852 -47.265 -62.919  1.00  0.00     0.006 A 
HETATM    2  C2  UNK   900      30.209 -48.561 -62.225  1.00  0.00    -0.014 A 
HETATM    3  C3  UNK   900      30.483 -47.218 -61.558  1.00  0.00     0.002 A 
HETATM    4  C7  UNK   900      31.347 -49.420 -62.713  1.00  0.00     0.018 C 
ENDROOT
BRANCH   1   5
HETATM    5  C4  UNK   900      30.565 -46.785 -64.156  1.00  0.00     0.001 C 
HETATM    6  C8  UNK   900      29.877 -47.221 -65.469  1.00  0.00     0.010 C 
HETATM    7  C11 UNK   900      30.664 -46.645 -66.652  1.00  0.00     0.175 C 
HETATM    8  C13 UNK   900      28.405 -46.797 -65.566  1.00  0.00     0.012 C 
HETATM    9  O2  UNK   900      30.768 -45.223 -66.567  1.00  0.00    -0.361 OA
HETATM   10  C12 UNK   900      31.462 -44.771 -65.403  1.00  0.00     0.257 C 
HETATM   11  C9  UNK   900      30.780 -45.264 -64.127  1.00  0.00     0.066 C 
BRANCH  10  12
HETATM   12  O3  UNK   900      32.829 -45.170 -65.396  1.00  0.00    -0.371 OA
HETATM   13  H23 UNK   900      33.187 -44.983 -66.281  1.00  0.00     0.212 HD
ENDBRANCH  10  12
ENDBRANCH   1   5
BRANCH   2  14
HETATM   14  C6  UNK   900      29.055 -49.369 -61.681  1.00  0.00     0.173 C 
BRANCH  14  15
HETATM   15  O1  UNK   900      29.444 -49.948 -60.452  1.00  0.00    -0.400 OA
HETATM   16  H22 UNK   900      28.640 -50.298 -60.032  1.00  0.00     0.209 HD
ENDBRANCH  14  15
ENDBRANCH   2  14
BRANCH   3  17
HETATM   17  C5  UNK   900      31.857 -46.699 -61.302  1.00  0.00     0.013 C 
BRANCH  17  18
HETATM   18  C10 UNK   900      32.196 -46.687 -59.812  1.00  0.00     0.078 C 
BRANCH  18  19
HETATM   19  C14 UNK   900      32.228 -48.078 -59.202  1.00  0.00     0.123 C 
HETATM   20  O4  UNK   900      31.322 -48.520 -58.500  1.00  0.00    -0.298 OA
HETATM   21  C15 UNK   900      33.449 -48.906 -59.507  1.00  0.00     0.091 C 
ENDBRANCH  18  19
ENDBRANCH  17  18
ENDBRANCH   3  17
TORSDOF 7
ENDMDL
MODEL 5
REMARK VINA RESULT:      -4.9     20.583     23.832
REMARK  7 active torsions:
REMARK  status: ('A' for Active; 'I' for Inactive)
REMARK    1  A    between atoms: O1_1  and  C6_10 
REMARK    2  A    between atoms: O3_3  and  C12_16 
REMARK    3  A    between atoms: C1_5  and  C4_8 
REMARK    4  A    between atoms: C2_6  and  C6_10 
REMARK    5  A    between atoms: C3_7  and  C5_9 
REMARK    6  A    between atoms: C5_9  and  C10_14 
REMARK    7  A    between atoms: C10_14  and  C14_18 
ROOT
HETATM    1  C1  UNK   900      30.518 -49.560 -84.491  1.00  0.00     0.006 A 
HETATM    2  C2  UNK   900      30.966 -50.982 -84.234  1.00  0.00    -0.014 A 
HETATM    3  C3  UNK   900      31.061 -50.375 -85.628  1.00  0.00     0.002 A 
HETATM    4  C7  UNK   900      29.968 -52.074 -83.941  1.00  0.00     0.018 C 
ENDROOT
BRANCH   1   5
HETATM    5  C4  UNK   900      29.073 -49.140 -84.418  1.00  0.00     0.001 C 
HETATM    6  C8  UNK   900      28.571 -48.918 -82.975  1.00  0.00     0.010 C 
HETATM    7  C11 UNK   900      27.109 -48.457 -83.027  1.00  0.00     0.175 C 
HETATM    8  C13 UNK   900      29.407 -47.907 -82.178  1.00  0.00     0.012 C 
HETATM    9  O2  UNK   900      26.961 -47.276 -83.816  1.00  0.00    -0.361 OA
HETATM   10  C12 UNK   900      27.346 -47.451 -85.181  1.00  0.00     0.257 C 
HETATM   11  C9  UNK   900      28.802 -47.905 -85.291  1.00  0.00     0.066 C 
BRANCH  10  12
HETATM   12  O3  UNK   900      26.506 -48.374 -85.868  1.00  0.00    -0.371 OA
HETATM   13  H23 UNK   900      26.219 -49.038 -85.218  1.00  0.00     0.212 HD
ENDBRANCH  10  12
ENDBRANCH   1   5
BRANCH   2  14
HETATM   14  C6  UNK   900      32.259 -51.149 -83.472  1.00  0.00     0.173 C 
BRANCH  14  15
HETATM   15  O1  UNK   900      32.078 -50.664 -82.157  1.00  0.00    -0.400 OA
HETATM   16  H22 UNK   900      32.252 -49.708 -82.175  1.00  0.00     0.209 HD
ENDBRANCH  14  15
ENDBRANCH   2  14
BRANCH   3  17
HETATM   17  C5  UNK   900      30.237 -50.841 -86.779  1.00  0.00     0.013 C 
BRANCH  17  18
HETATM   18  C10 UNK   900      30.979 -50.703 -88.109  1.00  0.00     0.078 C 
BRANCH  18  19
HETATM   19  C14 UNK   900      31.500 -49.297 -88.350  1.00  0.00     0.123 C 
HETATM   20  O4  UNK   900      30.765 -48.313 -88.410  1.00  0.00    -0.298 OA
HETATM   21  C15 UNK   900      32.991 -49.162 -88.516  1.00  0.00     0.091 C 
ENDBRANCH  18  19
ENDBRANCH  17  18
ENDBRANCH   3  17
TORSDOF 7
ENDMDL
MODEL 6
REMARK VINA RESULT:      -4.9     27.648     29.587
REMARK  7 active torsions:
REMARK  status: ('A' for Active; 'I' for Inactive)
REMARK    1  A    between atoms: O1_1  and  C6_10 
REMARK    2  A    between atoms: O3_3  and  C12_16 
REMARK    3  A    between atoms: C1_5  and  C4_8 
REMARK    4  A    between atoms: C2_6  and  C6_10 
REMARK    5  A    between atoms: C3_7  and  C5_9 
REMARK    6  A    between atoms: C5_9  and  C10_14 
REMARK    7  A    between atoms: C10_14  and  C14_18 
ROOT
HETATM    1  C1  UNK   900      23.489 -22.825 -75.447  1.00  0.00     0.006 A 
HETATM    2  C2  UNK   900      24.006 -24.237 -75.620  1.00  0.00    -0.014 A 
HETATM    3  C3  UNK   900      23.634 -23.706 -74.241  1.00  0.00     0.002 A 
HETATM    4  C7  UNK   900      25.447 -24.501 -75.975  1.00  0.00     0.018 C 
ENDROOT
BRANCH   1   5
HETATM    5  C4  UNK   900      24.355 -21.613 -75.668  1.00  0.00     0.001 C 
HETATM    6  C8  UNK   900      24.676 -21.351 -77.157  1.00  0.00     0.010 C 
HETATM    7  C11 UNK   900      25.523 -20.077 -77.261  1.00  0.00     0.175 C 
HETATM    8  C13 UNK   900      23.430 -21.223 -78.044  1.00  0.00     0.012 C 
HETATM    9  O2  UNK   900      24.861 -18.959 -76.669  1.00  0.00    -0.361 OA
HETATM   10  C12 UNK   900      24.606 -19.123 -75.273  1.00  0.00     0.257 C 
HETATM   11  C9  UNK   900      23.752 -20.363 -75.008  1.00  0.00     0.066 C 
BRANCH  10  12
HETATM   12  O3  UNK   900      25.805 -19.199 -74.507  1.00  0.00    -0.371 OA
HETATM   13  H23 UNK   900      25.586 -18.911 -73.604  1.00  0.00     0.212 HD
ENDBRANCH  10  12
ENDBRANCH   1   5
BRANCH   2  14
HETATM   14  C6  UNK   900      23.055 -25.225 -76.251  1.00  0.00     0.173 C 
BRANCH  14  15
HETATM   15  O1  UNK   900      22.305 -24.562 -77.249  1.00  0.00    -0.400 OA
HETATM   16  H22 UNK   900      22.814 -23.778 -77.518  1.00  0.00     0.209 HD
ENDBRANCH  14  15
ENDBRANCH   2  14
BRANCH   3  17
HETATM   17  C5  UNK   900      24.633 -23.470 -73.160  1.00  0.00     0.013 C 
BRANCH  17  18
HETATM   18  C10 UNK   900      24.051 -22.645 -72.012  1.00  0.00     0.078 C 
BRANCH  18  19
HETATM   19  C14 UNK   900      24.929 -21.466 -71.631  1.00  0.00     0.123 C 
HETATM   20  O4  UNK   900      25.951 -21.167 -72.245  1.00  0.00    -0.298 OA
HETATM   21  C15 UNK   900      24.479 -20.664 -70.437  1.00  0.00     0.091 C 
ENDBRANCH  18  19
ENDBRANCH  17  18
ENDBRANCH   3  17
TORSDOF 7
ENDMDL
MODEL 7
REMARK VINA RESULT:      -4.9     28.222     29.477
REMARK  7 active torsions:
REMARK  status: ('A' for Active; 'I' for Inactive)
REMARK    1  A    between atoms: O1_1  and  C6_10 
REMARK    2  A    between atoms: O3_3  and  C12_16 
REMARK    3  A    between atoms: C1_5  and  C4_8 
REMARK    4  A    between atoms: C2_6  and  C6_10 
REMARK    5  A    between atoms: C3_7  and  C5_9 
REMARK    6  A    between atoms: C5_9  and  C10_14 
REMARK    7  A    between atoms: C10_14  and  C14_18 
ROOT
HETATM    1  C1  UNK   900      25.034 -22.940 -74.636  1.00  0.00     0.006 A 
HETATM    2  C2  UNK   900      23.753 -22.847 -75.435  1.00  0.00    -0.014 A 
HETATM    3  C3  UNK   900      25.058 -23.266 -76.100  1.00  0.00     0.002 A 
HETATM    4  C7  UNK   900      23.127 -21.513 -75.751  1.00  0.00     0.018 C 
ENDROOT
BRANCH   1   5
HETATM    5  C4  UNK   900      25.726 -21.728 -74.069  1.00  0.00     0.001 C 
HETATM    6  C8  UNK   900      24.993 -21.116 -72.854  1.00  0.00     0.010 C 
HETATM    7  C11 UNK   900      25.805 -19.921 -72.340  1.00  0.00     0.175 C 
HETATM    8  C13 UNK   900      24.752 -22.113 -71.711  1.00  0.00     0.012 C 
HETATM    9  O2  UNK   900      27.140 -20.302 -72.004  1.00  0.00    -0.361 OA
HETATM   10  C12 UNK   900      27.884 -20.808 -73.113  1.00  0.00     0.257 C 
HETATM   11  C9  UNK   900      27.195 -22.024 -73.732  1.00  0.00     0.066 C 
BRANCH  10  12
HETATM   12  O3  UNK   900      28.100 -19.822 -74.118  1.00  0.00    -0.371 OA
HETATM   13  H23 UNK   900      28.234 -20.293 -74.958  1.00  0.00     0.212 HD
ENDBRANCH  10  12
ENDBRANCH   1   5
BRANCH   2  14
HETATM   14  C6  UNK   900      22.732 -23.932 -75.191  1.00  0.00     0.173 C 
BRANCH  14  15
HETATM   15  O1  UNK   900      21.575 -23.349 -74.625  1.00  0.00    -0.400 OA
HETATM   16  H22 UNK   900      20.829 -23.941 -74.822  1.00  0.00     0.209 HD
ENDBRANCH  14  15
ENDBRANCH   2  14
BRANCH   3  17
HETATM   17  C5  UNK   900      25.758 -22.436 -77.121  1.00  0.00     0.013 C 
BRANCH  17  18
HETATM   18  C10 UNK   900      27.236 -22.805 -77.246  1.00  0.00     0.078 C 
BRANCH  18  19
HETATM   19  C14 UNK   900      28.095 -21.646 -77.719  1.00  0.00     0.123 C 
HETATM   20  O4  UNK   900      29.198 -21.801 -78.238  1.00  0.00    -0.298 OA
HETATM   21  C15 UNK   900      27.519 -20.269 -77.517  1.00  0.00     0.091 C 
ENDBRANCH  18  19
ENDBRANCH  17  18
ENDBRANCH   3  17
TORSDOF 7
ENDMDL
MODEL 8
REMARK VINA RESULT:      -4.6      2.198      4.764
REMARK  7 active torsions:
REMARK  status: ('A' for Active; 'I' for Inactive)
REMARK    1  A    between atoms: O1_1  and  C6_10 
REMARK    2  A    between atoms: O3_3  and  C12_16 
REMARK    3  A    between atoms: C1_5  and  C4_8 
REMARK    4  A    between atoms: C2_6  and  C6_10 
REMARK    5  A    between atoms: C3_7  and  C5_9 
REMARK    6  A    between atoms: C5_9  and  C10_14 
REMARK    7  A    between atoms: C10_14  and  C14_18 
ROOT
HETATM    1  C1  UNK   900      30.875 -48.769 -63.206  1.00  0.00     0.006 A 
HETATM    2  C2  UNK   900      30.522 -47.404 -63.754  1.00  0.00    -0.014 A 
HETATM    3  C3  UNK   900      31.801 -48.111 -64.186  1.00  0.00     0.002 A 
HETATM    4  C7  UNK   900      30.584 -46.174 -62.884  1.00  0.00     0.018 C 
ENDROOT
BRANCH   1   5
HETATM    5  C4  UNK   900      31.253 -48.991 -61.765  1.00  0.00     0.001 C 
HETATM    6  C8  UNK   900      30.045 -48.956 -60.802  1.00  0.00     0.010 C 
HETATM    7  C11 UNK   900      30.543 -49.232 -59.378  1.00  0.00     0.175 C 
HETATM    8  C13 UNK   900      28.935 -49.951 -61.167  1.00  0.00     0.012 C 
HETATM    9  O2  UNK   900      31.235 -50.478 -59.298  1.00  0.00    -0.361 OA
HETATM   10  C12 UNK   900      32.403 -50.534 -60.118  1.00  0.00     0.257 C 
HETATM   11  C9  UNK   900      32.061 -50.286 -61.587  1.00  0.00     0.066 C 
BRANCH  10  12
HETATM   12  O3  UNK   900      33.405 -49.611 -59.701  1.00  0.00    -0.371 OA
HETATM   13  H23 UNK   900      33.182 -49.337 -58.794  1.00  0.00     0.212 HD
ENDBRANCH  10  12
ENDBRANCH   1   5
BRANCH   2  14
HETATM   14  C6  UNK   900      29.396 -47.357 -64.758  1.00  0.00     0.173 C 
BRANCH  14  15
HETATM   15  O1  UNK   900      29.946 -47.352 -66.060  1.00  0.00    -0.400 OA
HETATM   16  H22 UNK   900      30.743 -46.796 -66.033  1.00  0.00     0.209 HD
ENDBRANCH  14  15
ENDBRANCH   2  14
BRANCH   3  17
HETATM   17  C5  UNK   900      33.164 -47.620 -63.836  1.00  0.00     0.013 C 
BRANCH  17  18
HETATM   18  C10 UNK   900      34.242 -48.664 -64.126  1.00  0.00     0.078 C 
BRANCH  18  19
HETATM   19  C14 UNK   900      34.994 -48.391 -65.417  1.00  0.00     0.123 C 
HETATM   20  O4  UNK   900      35.214 -49.259 -66.259  1.00  0.00    -0.298 OA
HETATM   21  C15 UNK   900      35.468 -46.975 -65.620  1.00  0.00     0.091 C 
ENDBRANCH  18  19
ENDBRANCH  17  18
ENDBRANCH   3  17
TORSDOF 7
ENDMDL
MODEL 9
REMARK VINA RESULT:      -4.6     32.393     35.037
REMARK  7 active torsions:
REMARK  status: ('A' for Active; 'I' for Inactive)
REMARK    1  A    between atoms: O1_1  and  C6_10 
REMARK    2  A    between atoms: O3_3  and  C12_16 
REMARK    3  A    between atoms: C1_5  and  C4_8 
REMARK    4  A    between atoms: C2_6  and  C6_10 
REMARK    5  A    between atoms: C3_7  and  C5_9 
REMARK    6  A    between atoms: C5_9  and  C10_14 
REMARK    7  A    between atoms: C10_14  and  C14_18 
ROOT
HETATM    1  C1  UNK   900      25.690 -40.082 -96.754  1.00  0.00     0.006 A 
HETATM    2  C2  UNK   900      24.235 -40.068 -97.170  1.00  0.00    -0.014 A 
HETATM    3  C3  UNK   900      25.066 -38.791 -97.196  1.00  0.00     0.002 A 
HETATM    4  C7  UNK   900      23.133 -40.243 -96.157  1.00  0.00     0.018 C 
ENDROOT
BRANCH   1   5
HETATM    5  C4  UNK   900      26.123 -40.322 -95.332  1.00  0.00     0.001 C 
HETATM    6  C8  UNK   900      25.813 -41.749 -94.828  1.00  0.00     0.010 C 
HETATM    7  C11 UNK   900      26.332 -41.889 -93.392  1.00  0.00     0.175 C 
HETATM    8  C13 UNK   900      26.408 -42.858 -95.708  1.00  0.00     0.012 C 
HETATM    9  O2  UNK   900      27.728 -41.602 -93.311  1.00  0.00    -0.361 OA
HETATM   10  C12 UNK   900      28.059 -40.267 -93.698  1.00  0.00     0.257 C 
HETATM   11  C9  UNK   900      27.608 -39.979 -95.130  1.00  0.00     0.066 C 
BRANCH  10  12
HETATM   12  O3  UNK   900      27.504 -39.293 -92.820  1.00  0.00    -0.371 OA
HETATM   13  H23 UNK   900      28.099 -39.227 -92.053  1.00  0.00     0.212 HD
ENDBRANCH  10  12
ENDBRANCH   1   5
BRANCH   2  14
HETATM   14  C6  UNK   900      23.915 -40.701 -98.503  1.00  0.00     0.173 C 
BRANCH  14  15
HETATM   15  O1  UNK   900      23.255 -41.930 -98.276  1.00  0.00    -0.400 OA
HETATM   16  H22 UNK   900      22.908 -42.232 -99.133  1.00  0.00     0.209 HD
ENDBRANCH  14  15
ENDBRANCH   2  14
BRANCH   3  17
HETATM   17  C5  UNK   900      24.819 -37.637 -96.285  1.00  0.00     0.013 C 
BRANCH  17  18
HETATM   18  C10 UNK   900      26.061 -36.763 -96.117  1.00  0.00     0.078 C 
BRANCH  18  19
HETATM   19  C14 UNK   900      26.432 -36.539 -94.661  1.00  0.00     0.123 C 
HETATM   20  O4  UNK   900      27.593 -36.550 -94.259  1.00  0.00    -0.298 OA
HETATM   21  C15 UNK   900      25.284 -36.296 -93.716  1.00  0.00     0.091 C 
ENDBRANCH  18  19
ENDBRANCH  17  18
ENDBRANCH   3  17
TORSDOF 7
ENDMDL
