MODEL 1
REMARK VINA RESULT:      -8.7      0.000      0.000
REMARK  2 active torsions:
REMARK  status: ('A' for Active; 'I' for Inactive)
REMARK    1  A    between atoms: O3_3  and  C6_11 
REMARK    2  A    between atoms: O4_4  and  C7_12 
ROOT
HETATM    1  O1  UNK   900      24.055 -38.380 -68.076  1.00  0.00    -0.350 OA
HETATM    2  O2  UNK   900      21.937 -38.762 -69.166  1.00  0.00    -0.350 OA
HETATM    3  O5  UNK   900      22.493 -34.103 -70.309  1.00  0.00    -0.289 OA
HETATM    4  C1  UNK   900      23.325 -38.415 -69.320  1.00  0.00     0.168 C 
HETATM    5  C2  UNK   900      23.397 -37.021 -69.996  1.00  0.00     0.111 C 
HETATM    6  C3  UNK   900      23.134 -35.966 -68.994  1.00  0.00     0.003 C 
HETATM    7  C4  UNK   900      24.006 -39.442 -70.245  1.00  0.00     0.069 C 
HETATM    8  C5  UNK   900      23.166 -36.152 -67.674  1.00  0.00    -0.014 C 
HETATM    9  C6  UNK   900      22.620 -33.831 -67.889  1.00  0.00     0.148 C 
HETATM   10  C7  UNK   900      22.788 -34.960 -66.850  1.00  0.00     0.192 C 
HETATM   11  C8  UNK   900      23.798 -40.870 -69.750  1.00  0.00     0.008 C 
HETATM   12  C9  UNK   900      23.519 -37.477 -67.091  1.00  0.00     0.209 C 
HETATM   13  C10 UNK   900      21.713 -40.066 -68.623  1.00  0.00     0.121 C 
HETATM   14  C11 UNK   900      22.722 -34.577 -69.207  1.00  0.00     0.192 C 
HETATM   15  C12 UNK   900      22.316 -41.138 -69.529  1.00  0.00     0.032 C 
HETATM   16  C13 UNK   900      23.729 -32.787 -67.799  1.00  0.00     0.057 C 
HETATM   17  C14 UNK   900      20.208 -40.253 -68.480  1.00  0.00     0.040 C 
ENDROOT
BRANCH  10  18
HETATM   18  O4  UNK   900      21.583 -35.235 -66.148  1.00  0.00    -0.388 OA
HETATM   19  H20 UNK   900      21.143 -34.386 -65.971  1.00  0.00     0.210 HD
ENDBRANCH  10  18
BRANCH   9  20
HETATM   20  O3  UNK   900      21.353 -33.212 -67.805  1.00  0.00    -0.379 OA
HETATM   21  H19 UNK   900      21.483 -32.248 -67.843  1.00  0.00     0.211 HD
ENDBRANCH   9  20
TORSDOF 2
ENDMDL
MODEL 2
REMARK VINA RESULT:      -8.0      1.955      2.080
REMARK  2 active torsions:
REMARK  status: ('A' for Active; 'I' for Inactive)
REMARK    1  A    between atoms: O3_3  and  C6_11 
REMARK    2  A    between atoms: O4_4  and  C7_12 
ROOT
HETATM    1  O1  UNK   900      25.133 -38.444 -68.597  1.00  0.00    -0.350 OA
HETATM    2  O2  UNK   900      22.958 -38.544 -67.557  1.00  0.00    -0.350 OA
HETATM    3  O5  UNK   900      22.791 -33.974 -69.108  1.00  0.00    -0.289 OA
HETATM    4  C1  UNK   900      23.703 -38.370 -68.776  1.00  0.00     0.168 C 
HETATM    5  C2  UNK   900      23.331 -36.986 -69.369  1.00  0.00     0.111 C 
HETATM    6  C3  UNK   900      24.059 -35.921 -68.646  1.00  0.00     0.003 C 
HETATM    7  C4  UNK   900      23.290 -39.460 -69.783  1.00  0.00     0.069 C 
HETATM    8  C5  UNK   900      25.110 -36.129 -67.851  1.00  0.00    -0.014 C 
HETATM    9  C6  UNK   900      24.812 -33.755 -67.760  1.00  0.00     0.148 C 
HETATM   10  C7  UNK   900      25.639 -34.911 -67.158  1.00  0.00     0.192 C 
HETATM   11  C8  UNK   900      23.434 -40.858 -69.190  1.00  0.00     0.008 C 
HETATM   12  C9  UNK   900      25.670 -37.496 -67.656  1.00  0.00     0.209 C 
HETATM   13  C10 UNK   900      23.141 -39.818 -66.933  1.00  0.00     0.121 C 
HETATM   14  C11 UNK   900      23.762 -34.489 -68.576  1.00  0.00     0.192 C 
HETATM   15  C12 UNK   900      22.692 -40.943 -67.863  1.00  0.00     0.032 C 
HETATM   16  C13 UNK   900      25.641 -32.858 -68.673  1.00  0.00     0.057 C 
HETATM   17  C14 UNK   900      22.331 -39.819 -65.643  1.00  0.00     0.040 C 
ENDROOT
BRANCH  10  18
HETATM   18  O4  UNK   900      25.446 -35.044 -65.757  1.00  0.00    -0.388 OA
HETATM   19  H20 UNK   900      25.205 -34.170 -65.407  1.00  0.00     0.210 HD
ENDBRANCH  10  18
BRANCH   9  20
HETATM   20  O3  UNK   900      24.168 -32.985 -66.766  1.00  0.00    -0.379 OA
HETATM   21  H19 UNK   900      24.658 -33.095 -65.932  1.00  0.00     0.211 HD
ENDBRANCH   9  20
TORSDOF 2
ENDMDL
MODEL 3
REMARK VINA RESULT:      -7.9      1.524      2.114
REMARK  2 active torsions:
REMARK  status: ('A' for Active; 'I' for Inactive)
REMARK    1  A    between atoms: O3_3  and  C6_11 
REMARK    2  A    between atoms: O4_4  and  C7_12 
ROOT
HETATM    1  O1  UNK   900      24.974 -37.423 -69.926  1.00  0.00    -0.350 OA
HETATM    2  O2  UNK   900      23.084 -38.888 -69.603  1.00  0.00    -0.350 OA
HETATM    3  O5  UNK   900      21.050 -34.769 -68.113  1.00  0.00    -0.289 OA
HETATM    4  C1  UNK   900      23.619 -37.749 -70.301  1.00  0.00     0.168 C 
HETATM    5  C2  UNK   900      22.699 -36.534 -70.008  1.00  0.00     0.111 C 
HETATM    6  C3  UNK   900      23.003 -35.990 -68.668  1.00  0.00     0.003 C 
HETATM    7  C4  UNK   900      23.596 -38.025 -71.816  1.00  0.00     0.069 C 
HETATM    8  C5  UNK   900      24.102 -36.272 -67.967  1.00  0.00    -0.014 C 
HETATM    9  C6  UNK   900      22.911 -34.766 -66.537  1.00  0.00     0.148 C 
HETATM   10  C7  UNK   900      24.161 -35.670 -66.597  1.00  0.00     0.192 C 
HETATM   11  C8  UNK   900      24.311 -39.327 -72.162  1.00  0.00     0.008 C 
HETATM   12  C9  UNK   900      25.161 -37.162 -68.522  1.00  0.00     0.209 C 
HETATM   13  C10 UNK   900      23.789 -40.109 -69.843  1.00  0.00     0.121 C 
HETATM   14  C11 UNK   900      22.178 -35.131 -67.815  1.00  0.00     0.192 C 
HETATM   15  C12 UNK   900      23.751 -40.470 -71.326  1.00  0.00     0.032 C 
HETATM   16  C13 UNK   900      23.264 -33.283 -66.549  1.00  0.00     0.057 C 
HETATM   17  C14 UNK   900      23.131 -41.193 -68.998  1.00  0.00     0.040 C 
ENDROOT
BRANCH  10  18
HETATM   18  O4  UNK   900      24.129 -36.706 -65.625  1.00  0.00    -0.388 OA
HETATM   19  H20 UNK   900      23.198 -36.948 -65.481  1.00  0.00     0.210 HD
ENDBRANCH  10  18
BRANCH   9  20
HETATM   20  O3  UNK   900      22.087 -35.068 -65.430  1.00  0.00    -0.379 OA
HETATM   21  H19 UNK   900      21.578 -35.870 -65.641  1.00  0.00     0.211 HD
ENDBRANCH   9  20
TORSDOF 2
ENDMDL
MODEL 4
REMARK VINA RESULT:      -7.6      2.075      3.245
REMARK  2 active torsions:
REMARK  status: ('A' for Active; 'I' for Inactive)
REMARK    1  A    between atoms: O3_3  and  C6_11 
REMARK    2  A    between atoms: O4_4  and  C7_12 
ROOT
HETATM    1  O1  UNK   900      23.067 -38.202 -70.442  1.00  0.00    -0.350 OA
HETATM    2  O2  UNK   900      22.440 -39.361 -68.421  1.00  0.00    -0.350 OA
HETATM    3  O5  UNK   900      23.661 -35.122 -66.457  1.00  0.00    -0.289 OA
HETATM    4  C1  UNK   900      22.170 -38.265 -69.314  1.00  0.00     0.168 C 
HETATM    5  C2  UNK   900      22.276 -36.949 -68.500  1.00  0.00     0.111 C 
HETATM    6  C3  UNK   900      23.699 -36.589 -68.316  1.00  0.00     0.003 C 
HETATM    7  C4  UNK   900      20.732 -38.391 -69.853  1.00  0.00     0.069 C 
HETATM    8  C5  UNK   900      24.707 -37.112 -69.014  1.00  0.00    -0.014 C 
HETATM    9  C6  UNK   900      25.799 -35.572 -67.541  1.00  0.00     0.148 C 
HETATM   10  C7  UNK   900      26.074 -36.658 -68.602  1.00  0.00     0.192 C 
HETATM   11  C8  UNK   900      20.487 -39.755 -70.491  1.00  0.00     0.008 C 
HETATM   12  C9  UNK   900      24.461 -38.108 -70.095  1.00  0.00     0.209 C 
HETATM   13  C10 UNK   900      22.300 -40.653 -69.018  1.00  0.00     0.121 C 
HETATM   14  C11 UNK   900      24.300 -35.690 -67.329  1.00  0.00     0.192 C 
HETATM   15  C12 UNK   900      20.874 -40.863 -69.521  1.00  0.00     0.032 C 
HETATM   16  C13 UNK   900      26.141 -34.172 -68.040  1.00  0.00     0.057 C 
HETATM   17  C14 UNK   900      22.666 -41.689 -67.963  1.00  0.00     0.040 C 
ENDROOT
BRANCH  10  18
HETATM   18  O4  UNK   900      26.798 -37.761 -68.074  1.00  0.00    -0.388 OA
HETATM   19  H20 UNK   900      27.302 -37.443 -67.306  1.00  0.00     0.210 HD
ENDBRANCH  10  18
BRANCH   9  20
HETATM   20  O3  UNK   900      26.460 -35.836 -66.321  1.00  0.00    -0.379 OA
HETATM   21  H19 UNK   900      27.338 -35.419 -66.356  1.00  0.00     0.211 HD
ENDBRANCH   9  20
TORSDOF 2
ENDMDL
MODEL 5
REMARK VINA RESULT:      -6.5     16.734     18.363
REMARK  2 active torsions:
REMARK  status: ('A' for Active; 'I' for Inactive)
REMARK    1  A    between atoms: O3_3  and  C6_11 
REMARK    2  A    between atoms: O4_4  and  C7_12 
ROOT
HETATM    1  O1  UNK   900      36.373 -40.588 -56.982  1.00  0.00    -0.350 OA
HETATM    2  O2  UNK   900      37.067 -39.597 -54.895  1.00  0.00    -0.350 OA
HETATM    3  O5  UNK   900      32.761 -37.449 -55.302  1.00  0.00    -0.289 OA
HETATM    4  C1  UNK   900      36.115 -40.440 -55.570  1.00  0.00     0.168 C 
HETATM    5  C2  UNK   900      34.706 -39.825 -55.368  1.00  0.00     0.111 C 
HETATM    6  C3  UNK   900      34.519 -38.688 -56.295  1.00  0.00     0.003 C 
HETATM    7  C4  UNK   900      36.133 -41.841 -54.930  1.00  0.00     0.069 C 
HETATM    8  C5  UNK   900      35.289 -38.443 -57.356  1.00  0.00    -0.014 C 
HETATM    9  C6  UNK   900      33.682 -36.669 -57.422  1.00  0.00     0.148 C 
HETATM   10  C7  UNK   900      34.963 -37.189 -58.108  1.00  0.00     0.192 C 
HETATM   11  C8  UNK   900      37.540 -42.430 -54.905  1.00  0.00     0.008 C 
HETATM   12  C9  UNK   900      36.413 -39.352 -57.719  1.00  0.00     0.209 C 
HETATM   13  C10 UNK   900      38.411 -40.084 -54.930  1.00  0.00     0.121 C 
HETATM   14  C11 UNK   900      33.554 -37.589 -56.221  1.00  0.00     0.192 C 
HETATM   15  C12 UNK   900      38.506 -41.451 -54.254  1.00  0.00     0.032 C 
HETATM   16  C13 UNK   900      32.450 -36.805 -58.310  1.00  0.00     0.057 C 
HETATM   17  C14 UNK   900      39.289 -39.061 -54.220  1.00  0.00     0.040 C 
ENDROOT
BRANCH  10  18
HETATM   18  O4  UNK   900      36.047 -36.277 -57.995  1.00  0.00    -0.388 OA
HETATM   19  H20 UNK   900      36.810 -36.766 -57.641  1.00  0.00     0.210 HD
ENDBRANCH  10  18
BRANCH   9  20
HETATM   20  O3  UNK   900      33.820 -35.338 -56.971  1.00  0.00    -0.379 OA
HETATM   21  H19 UNK   900      32.934 -34.993 -56.766  1.00  0.00     0.211 HD
ENDBRANCH   9  20
TORSDOF 2
ENDMDL
MODEL 6
REMARK VINA RESULT:      -6.4     14.467     16.246
REMARK  2 active torsions:
REMARK  status: ('A' for Active; 'I' for Inactive)
REMARK    1  A    between atoms: O3_3  and  C6_11 
REMARK    2  A    between atoms: O4_4  and  C7_12 
ROOT
HETATM    1  O1  UNK   900      23.147 -22.060 -74.837  1.00  0.00    -0.350 OA
HETATM    2  O2  UNK   900      25.102 -23.463 -74.659  1.00  0.00    -0.350 OA
HETATM    3  O5  UNK   900      24.914 -21.929 -70.084  1.00  0.00    -0.289 OA
HETATM    4  C1  UNK   900      23.748 -23.226 -74.234  1.00  0.00     0.168 C 
HETATM    5  C2  UNK   900      23.753 -23.061 -72.692  1.00  0.00     0.111 C 
HETATM    6  C3  UNK   900      24.216 -21.702 -72.337  1.00  0.00     0.003 C 
HETATM    7  C4  UNK   900      22.882 -24.449 -74.592  1.00  0.00     0.069 C 
HETATM    8  C5  UNK   900      24.290 -20.681 -73.191  1.00  0.00    -0.014 C 
HETATM    9  C6  UNK   900      25.046 -19.728 -71.129  1.00  0.00     0.148 C 
HETATM   10  C7  UNK   900      24.864 -19.417 -72.629  1.00  0.00     0.192 C 
HETATM   11  C8  UNK   900      22.990 -24.802 -76.072  1.00  0.00     0.008 C 
HETATM   12  C9  UNK   900      23.862 -20.832 -74.611  1.00  0.00     0.209 C 
HETATM   13  C10 UNK   900      25.243 -23.713 -76.060  1.00  0.00     0.121 C 
HETATM   14  C11 UNK   900      24.744 -21.215 -71.061  1.00  0.00     0.192 C 
HETATM   15  C12 UNK   900      24.452 -24.954 -76.468  1.00  0.00     0.032 C 
HETATM   16  C13 UNK   900      24.062 -18.961 -70.252  1.00  0.00     0.057 C 
HETATM   17  C14 UNK   900      26.728 -23.892 -76.348  1.00  0.00     0.040 C 
ENDROOT
BRANCH  10  18
HETATM   18  O4  UNK   900      26.096 -19.130 -73.277  1.00  0.00    -0.388 OA
HETATM   19  H20 UNK   900      26.362 -18.230 -73.021  1.00  0.00     0.210 HD
ENDBRANCH  10  18
BRANCH   9  20
HETATM   20  O3  UNK   900      26.371 -19.506 -70.693  1.00  0.00    -0.379 OA
HETATM   21  H19 UNK   900      26.974 -19.769 -71.411  1.00  0.00     0.211 HD
ENDBRANCH   9  20
TORSDOF 2
ENDMDL
MODEL 7
REMARK VINA RESULT:      -6.4     15.953     18.020
REMARK  2 active torsions:
REMARK  status: ('A' for Active; 'I' for Inactive)
REMARK    1  A    between atoms: O3_3  and  C6_11 
REMARK    2  A    between atoms: O4_4  and  C7_12 
ROOT
HETATM    1  O1  UNK   900      35.982 -37.006 -58.918  1.00  0.00    -0.350 OA
HETATM    2  O2  UNK   900      34.157 -36.996 -57.339  1.00  0.00    -0.350 OA
HETATM    3  O5  UNK   900      37.366 -39.454 -54.697  1.00  0.00    -0.289 OA
HETATM    4  C1  UNK   900      35.506 -36.582 -57.622  1.00  0.00     0.168 C 
HETATM    5  C2  UNK   900      36.427 -37.169 -56.521  1.00  0.00     0.111 C 
HETATM    6  C3  UNK   900      36.692 -38.597 -56.800  1.00  0.00     0.003 C 
HETATM    7  C4  UNK   900      35.590 -35.045 -57.561  1.00  0.00     0.069 C 
HETATM    8  C5  UNK   900      36.464 -39.194 -57.970  1.00  0.00    -0.014 C 
HETATM    9  C6  UNK   900      37.348 -40.959 -56.616  1.00  0.00     0.148 C 
HETATM   10  C7  UNK   900      36.732 -40.667 -58.001  1.00  0.00     0.192 C 
HETATM   11  C8  UNK   900      34.560 -34.388 -58.475  1.00  0.00     0.008 C 
HETATM   12  C9  UNK   900      35.940 -38.428 -59.136  1.00  0.00     0.209 C 
HETATM   13  C10 UNK   900      33.178 -36.461 -58.234  1.00  0.00     0.121 C 
HETATM   14  C11 UNK   900      37.161 -39.641 -55.886  1.00  0.00     0.192 C 
HETATM   15  C12 UNK   900      33.171 -34.935 -58.176  1.00  0.00     0.032 C 
HETATM   16  C13 UNK   900      38.833 -41.297 -56.699  1.00  0.00     0.057 C 
HETATM   17  C14 UNK   900      31.825 -37.031 -57.829  1.00  0.00     0.040 C 
ENDROOT
BRANCH  10  18
HETATM   18  O4  UNK   900      35.511 -41.364 -58.209  1.00  0.00    -0.388 OA
HETATM   19  H20 UNK   900      35.420 -41.522 -59.164  1.00  0.00     0.210 HD
ENDBRANCH  10  18
BRANCH   9  20
HETATM   20  O3  UNK   900      36.650 -41.973 -55.923  1.00  0.00    -0.379 OA
HETATM   21  H19 UNK   900      36.203 -41.567 -55.160  1.00  0.00     0.211 HD
ENDBRANCH   9  20
TORSDOF 2
ENDMDL
