MODEL 1
REMARK VINA RESULT:      -8.7      0.000      0.000
REMARK  6 active torsions:
REMARK  status: ('A' for Active; 'I' for Inactive)
REMARK    1  A    between atoms: O1_1  and  C2_11 
REMARK    2  A    between atoms: N2_6  and  C10_19 
REMARK    3  A    between atoms: C1_10  and  C2_11 
REMARK    4  A    between atoms: C2_11  and  C3_12 
REMARK    5  A    between atoms: C3_12  and  C5_14 
REMARK    6  A    between atoms: C4_13  and  C7_16 
ROOT
HETATM    1  C2  UNK   900      33.564 -47.283 -63.568  1.00  0.00     0.105 C 
HETATM    2  C8  UNK   900      34.781 -47.016 -64.459  1.00  0.00     0.050 C 
ENDROOT
BRANCH   1   3
HETATM    3  O1  UNK   900      33.603 -46.356 -62.480  1.00  0.00    -0.386 OA
HETATM    4  H11 UNK   900      32.734 -46.344 -62.045  1.00  0.00     0.210 HD
ENDBRANCH   1   3
BRANCH   1   5
HETATM    5  C1  UNK   900      33.657 -48.690 -62.974  1.00  0.00     0.363 C 
HETATM    6  N1  UNK   900      32.402 -49.047 -62.307  1.00  0.00     0.124 N 
HETATM    7  C4  UNK   900      32.556 -48.655 -60.910  1.00  0.00     0.318 C 
HETATM    8  H5  UNK   900      32.322 -50.065 -62.354  1.00  0.00     0.319 HD
HETATM    9  C6  UNK   900      34.045 -48.784 -60.665  1.00  0.00     0.260 C 
HETATM   10  O2  UNK   900      34.538 -48.836 -59.547  1.00  0.00    -0.271 OA
HETATM   11  N2  UNK   900      34.657 -48.796 -61.929  1.00  0.00    -0.282 N 
BRANCH   7  12
HETATM   12  C7  UNK   900      31.736 -49.550 -59.998  1.00  0.00     0.020 C 
HETATM   13  C13 UNK   900      30.609 -48.761 -59.330  1.00  0.00     0.012 C 
HETATM   14  C14 UNK   900      31.164 -50.738 -60.775  1.00  0.00     0.012 C 
ENDBRANCH   7  12
BRANCH  11  15
HETATM   15  C10 UNK   900      36.059 -48.905 -62.195  1.00  0.00     0.039 A 
HETATM   16  C16 UNK   900      36.541 -49.953 -62.980  1.00  0.00     0.030 A 
HETATM   17  C21 UNK   900      37.908 -50.059 -63.239  1.00  0.00     0.002 A 
HETATM   18  C24 UNK   900      38.792 -49.117 -62.714  1.00  0.00     0.000 A 
HETATM   19  C22 UNK   900      38.310 -48.069 -61.930  1.00  0.00     0.002 A 
HETATM   20  C17 UNK   900      36.944 -47.963 -61.670  1.00  0.00     0.030 A 
ENDBRANCH  11  15
ENDBRANCH   1   5
BRANCH   1  21
HETATM   21  C3  UNK   900      32.266 -47.071 -64.373  1.00  0.00     0.077 C 
BRANCH  21  22
HETATM   22  C5  UNK   900      31.356 -45.976 -63.826  1.00  0.00     0.189 C 
HETATM   23  N3  UNK   900      31.270 -44.812 -64.718  1.00  0.00    -0.286 N 
HETATM   24  C11 UNK   900      30.238 -44.696 -65.642  1.00  0.00     0.133 A 
HETATM   25  C15 UNK   900      32.307 -43.867 -64.662  1.00  0.00     0.262 A 
HETATM   26  N5  UNK   900      30.132 -43.735 -66.507  1.00  0.00    -0.232 NA
HETATM   27  C12 UNK   900      29.171 -45.771 -65.634  1.00  0.00     0.150 C 
HETATM   28  C20 UNK   900      31.111 -42.734 -66.509  1.00  0.00     0.074 A 
HETATM   29  C19 UNK   900      32.194 -42.750 -65.624  1.00  0.00     0.061 A 
HETATM   30  C25 UNK   900      31.005 -41.682 -67.425  1.00  0.00     0.032 A 
HETATM   31  C23 UNK   900      33.155 -41.734 -65.650  1.00  0.00     0.019 A 
HETATM   32  C26 UNK   900      33.034 -40.692 -66.568  1.00  0.00     0.001 A 
HETATM   33  C27 UNK   900      31.961 -40.666 -67.455  1.00  0.00     0.002 A 
HETATM   34  N4  UNK   900      28.956 -46.207 -64.274  1.00  0.00    -0.348 N 
HETATM   35  C18 UNK   900      29.433 -46.913 -66.600  1.00  0.00     0.040 C 
HETATM   36  C9  UNK   900      29.987 -46.491 -63.407  1.00  0.00     0.241 C 
HETATM   37  H19 UNK   900      28.027 -46.532 -64.023  1.00  0.00     0.163 HD
HETATM   38  O3  UNK   900      29.838 -47.172 -62.392  1.00  0.00    -0.271 OA
HETATM   39  O4  UNK   900      33.270 -43.913 -63.902  1.00  0.00    -0.267 OA
ENDBRANCH  21  22
ENDBRANCH   1  21
TORSDOF 6
ENDMDL
MODEL 2
REMARK VINA RESULT:      -8.2      2.477      4.400
REMARK  6 active torsions:
REMARK  status: ('A' for Active; 'I' for Inactive)
REMARK    1  A    between atoms: O1_1  and  C2_11 
REMARK    2  A    between atoms: N2_6  and  C10_19 
REMARK    3  A    between atoms: C1_10  and  C2_11 
REMARK    4  A    between atoms: C2_11  and  C3_12 
REMARK    5  A    between atoms: C3_12  and  C5_14 
REMARK    6  A    between atoms: C4_13  and  C7_16 
ROOT
HETATM    1  C2  UNK   900      34.436 -47.130 -61.196  1.00  0.00     0.105 C 
HETATM    2  C8  UNK   900      34.559 -45.605 -61.273  1.00  0.00     0.050 C 
ENDROOT
BRANCH   1   3
HETATM    3  O1  UNK   900      34.100 -47.477 -59.851  1.00  0.00    -0.386 OA
HETATM    4  H11 UNK   900      34.167 -46.682 -59.295  1.00  0.00     0.210 HD
ENDBRANCH   1   3
BRANCH   1   5
HETATM    5  C1  UNK   900      35.789 -47.774 -61.510  1.00  0.00     0.363 C 
HETATM    6  N1  UNK   900      36.475 -47.031 -62.571  1.00  0.00     0.124 N 
HETATM    7  C4  UNK   900      36.095 -47.669 -63.827  1.00  0.00     0.318 C 
HETATM    8  H5  UNK   900      37.477 -47.166 -62.425  1.00  0.00     0.319 HD
HETATM    9  C6  UNK   900      35.844 -49.111 -63.434  1.00  0.00     0.260 C 
HETATM   10  O2  UNK   900      35.799 -50.027 -64.242  1.00  0.00    -0.271 OA
HETATM   11  N2  UNK   900      35.664 -49.118 -62.041  1.00  0.00    -0.282 N 
BRANCH   7  12
HETATM   12  C7  UNK   900      37.196 -47.532 -64.864  1.00  0.00     0.020 C 
HETATM   13  C13 UNK   900      36.610 -47.217 -66.242  1.00  0.00     0.012 C 
HETATM   14  C14 UNK   900      38.197 -46.450 -64.453  1.00  0.00     0.012 C 
ENDBRANCH   7  12
BRANCH  11  15
HETATM   15  C10 UNK   900      35.402 -50.262 -61.222  1.00  0.00     0.039 A 
HETATM   16  C16 UNK   900      34.102 -50.531 -60.795  1.00  0.00     0.030 A 
HETATM   17  C21 UNK   900      33.846 -51.647 -59.997  1.00  0.00     0.002 A 
HETATM   18  C24 UNK   900      34.892 -52.494 -59.628  1.00  0.00     0.000 A 
HETATM   19  C22 UNK   900      36.192 -52.225 -60.055  1.00  0.00     0.002 A 
HETATM   20  C17 UNK   900      36.447 -51.109 -60.853  1.00  0.00     0.030 A 
ENDBRANCH  11  15
ENDBRANCH   1   5
BRANCH   1  21
HETATM   21  C3  UNK   900      33.322 -47.617 -62.143  1.00  0.00     0.077 C 
BRANCH  21  22
HETATM   22  C5  UNK   900      32.173 -46.630 -62.327  1.00  0.00     0.189 C 
HETATM   23  N3  UNK   900      31.624 -46.648 -63.690  1.00  0.00    -0.286 N 
HETATM   24  C11 UNK   900      30.516 -47.427 -64.002  1.00  0.00     0.133 A 
HETATM   25  C15 UNK   900      32.303 -45.918 -64.678  1.00  0.00     0.262 A 
HETATM   26  N5  UNK   900      30.015 -47.546 -65.192  1.00  0.00    -0.232 NA
HETATM   27  C12 UNK   900      29.857 -48.187 -62.870  1.00  0.00     0.150 C 
HETATM   28  C20 UNK   900      30.616 -46.835 -66.238  1.00  0.00     0.074 A 
HETATM   29  C19 UNK   900      31.735 -46.021 -66.039  1.00  0.00     0.061 A 
HETATM   30  C25 UNK   900      30.080 -46.941 -67.527  1.00  0.00     0.032 A 
HETATM   31  C23 UNK   900      32.312 -45.323 -67.105  1.00  0.00     0.019 A 
HETATM   32  C26 UNK   900      31.765 -45.438 -68.382  1.00  0.00     0.001 A 
HETATM   33  C27 UNK   900      30.651 -46.246 -68.593  1.00  0.00     0.002 A 
HETATM   34  N4  UNK   900      29.941 -47.397 -61.663  1.00  0.00    -0.348 N 
HETATM   35  C18 UNK   900      30.365 -49.608 -62.697  1.00  0.00     0.040 C 
HETATM   36  C9  UNK   900      31.095 -46.764 -61.261  1.00  0.00     0.241 C 
HETATM   37  H19 UNK   900      29.198 -47.498 -60.979  1.00  0.00     0.163 HD
HETATM   38  O3  UNK   900      31.282 -46.386 -60.105  1.00  0.00    -0.271 OA
HETATM   39  O4  UNK   900      33.306 -45.234 -64.494  1.00  0.00    -0.267 OA
ENDBRANCH  21  22
ENDBRANCH   1  21
TORSDOF 6
ENDMDL
MODEL 3
REMARK VINA RESULT:      -8.1      2.355      4.154
REMARK  6 active torsions:
REMARK  status: ('A' for Active; 'I' for Inactive)
REMARK    1  A    between atoms: O1_1  and  C2_11 
REMARK    2  A    between atoms: N2_6  and  C10_19 
REMARK    3  A    between atoms: C1_10  and  C2_11 
REMARK    4  A    between atoms: C2_11  and  C3_12 
REMARK    5  A    between atoms: C3_12  and  C5_14 
REMARK    6  A    between atoms: C4_13  and  C7_16 
ROOT
HETATM    1  C2  UNK   900      33.528 -46.477 -60.588  1.00  0.00     0.105 C 
HETATM    2  C8  UNK   900      32.817 -45.154 -60.287  1.00  0.00     0.050 C 
ENDROOT
BRANCH   1   3
HETATM    3  O1  UNK   900      33.409 -47.312 -59.434  1.00  0.00    -0.386 OA
HETATM    4  H11 UNK   900      34.257 -47.312 -58.957  1.00  0.00     0.210 HD
ENDBRANCH   1   3
BRANCH   1   5
HETATM    5  C1  UNK   900      35.019 -46.222 -60.817  1.00  0.00     0.363 C 
HETATM    6  N1  UNK   900      35.218 -44.949 -61.516  1.00  0.00     0.124 N 
HETATM    7  C4  UNK   900      35.249 -45.266 -62.940  1.00  0.00     0.318 C 
HETATM    8  H5  UNK   900      36.137 -44.601 -61.239  1.00  0.00     0.319 HD
HETATM    9  C6  UNK   900      35.797 -46.678 -62.981  1.00  0.00     0.260 C 
HETATM   10  O2  UNK   900      36.253 -47.190 -63.992  1.00  0.00    -0.271 OA
HETATM   11  N2  UNK   900      35.632 -47.206 -61.689  1.00  0.00    -0.282 N 
BRANCH   7  12
HETATM   12  C7  UNK   900      36.120 -44.281 -63.699  1.00  0.00     0.020 C 
HETATM   13  C13 UNK   900      35.347 -42.999 -64.013  1.00  0.00     0.012 C 
HETATM   14  C14 UNK   900      37.389 -43.956 -62.908  1.00  0.00     0.012 C 
ENDBRANCH   7  12
BRANCH  11  15
HETATM   15  C10 UNK   900      36.008 -48.515 -61.251  1.00  0.00     0.039 A 
HETATM   16  C16 UNK   900      35.167 -49.600 -61.495  1.00  0.00     0.030 A 
HETATM   17  C21 UNK   900      35.534 -50.877 -61.068  1.00  0.00     0.002 A 
HETATM   18  C24 UNK   900      36.742 -51.067 -60.397  1.00  0.00     0.000 A 
HETATM   19  C22 UNK   900      37.582 -49.982 -60.152  1.00  0.00     0.002 A 
HETATM   20  C17 UNK   900      37.216 -48.705 -60.579  1.00  0.00     0.030 A 
ENDBRANCH  11  15
ENDBRANCH   1   5
BRANCH   1  21
HETATM   21  C3  UNK   900      32.860 -47.172 -61.791  1.00  0.00     0.077 C 
BRANCH  21  22
HETATM   22  C5  UNK   900      31.416 -46.750 -62.043  1.00  0.00     0.189 C 
HETATM   23  N3  UNK   900      31.103 -46.625 -63.473  1.00  0.00    -0.286 N 
HETATM   24  C11 UNK   900      30.528 -47.680 -64.172  1.00  0.00     0.133 A 
HETATM   25  C15 UNK   900      31.478 -45.439 -64.123  1.00  0.00     0.262 A 
HETATM   26  N5  UNK   900      30.285 -47.670 -65.446  1.00  0.00    -0.232 NA
HETATM   27  C12 UNK   900      30.168 -48.924 -63.386  1.00  0.00     0.150 C 
HETATM   28  C20 UNK   900      30.607 -46.517 -66.173  1.00  0.00     0.074 A 
HETATM   29  C19 UNK   900      31.189 -45.397 -65.572  1.00  0.00     0.061 A 
HETATM   30  C25 UNK   900      30.338 -46.484 -67.546  1.00  0.00     0.032 A 
HETATM   31  C23 UNK   900      31.498 -44.260 -66.326  1.00  0.00     0.019 A 
HETATM   32  C26 UNK   900      31.223 -44.241 -67.692  1.00  0.00     0.001 A 
HETATM   33  C27 UNK   900      30.644 -45.352 -68.302  1.00  0.00     0.002 A 
HETATM   34  N4  UNK   900      29.732 -48.533 -62.065  1.00  0.00    -0.348 N 
HETATM   35  C18 UNK   900      31.252 -49.987 -63.374  1.00  0.00     0.040 C 
HETATM   36  C9  UNK   900      30.405 -47.609 -61.297  1.00  0.00     0.241 C 
HETATM   37  H19 UNK   900      29.046 -49.119 -61.601  1.00  0.00     0.163 HD
HETATM   38  O3  UNK   900      30.257 -47.518 -60.079  1.00  0.00    -0.271 OA
HETATM   39  O4  UNK   900      32.020 -44.476 -63.589  1.00  0.00    -0.267 OA
ENDBRANCH  21  22
ENDBRANCH   1  21
TORSDOF 6
ENDMDL
MODEL 4
REMARK VINA RESULT:      -7.5      2.900      5.242
REMARK  6 active torsions:
REMARK  status: ('A' for Active; 'I' for Inactive)
REMARK    1  A    between atoms: O1_1  and  C2_11 
REMARK    2  A    between atoms: N2_6  and  C10_19 
REMARK    3  A    between atoms: C1_10  and  C2_11 
REMARK    4  A    between atoms: C2_11  and  C3_12 
REMARK    5  A    between atoms: C3_12  and  C5_14 
REMARK    6  A    between atoms: C4_13  and  C7_16 
ROOT
HETATM    1  C2  UNK   900      34.739 -46.184 -61.320  1.00  0.00     0.105 C 
HETATM    2  C8  UNK   900      34.229 -44.817 -60.854  1.00  0.00     0.050 C 
ENDROOT
BRANCH   1   3
HETATM    3  O1  UNK   900      35.709 -46.637 -60.375  1.00  0.00    -0.386 OA
HETATM    4  H11 UNK   900      35.974 -45.890 -59.812  1.00  0.00     0.210 HD
ENDBRANCH   1   3
BRANCH   1   5
HETATM    5  C1  UNK   900      35.447 -46.039 -62.670  1.00  0.00     0.363 C 
HETATM    6  N1  UNK   900      35.625 -47.351 -63.297  1.00  0.00     0.124 N 
HETATM    7  C4  UNK   900      36.937 -47.831 -62.876  1.00  0.00     0.318 C 
HETATM    8  H5  UNK   900      35.642 -47.195 -64.307  1.00  0.00     0.319 HD
HETATM    9  C6  UNK   900      37.732 -46.558 -62.667  1.00  0.00     0.260 C 
HETATM   10  O2  UNK   900      38.953 -46.534 -62.604  1.00  0.00    -0.271 OA
HETATM   11  N2  UNK   900      36.795 -45.518 -62.545  1.00  0.00    -0.282 N 
BRANCH   7  12
HETATM   12  C7  UNK   900      37.551 -48.734 -63.930  1.00  0.00     0.020 C 
HETATM   13  C13 UNK   900      37.103 -50.184 -63.733  1.00  0.00     0.012 C 
HETATM   14  C14 UNK   900      37.189 -48.253 -65.337  1.00  0.00     0.012 C 
ENDBRANCH   7  12
BRANCH  11  15
HETATM   15  C10 UNK   900      37.084 -44.132 -62.338  1.00  0.00     0.039 A 
HETATM   16  C16 UNK   900      37.567 -43.698 -61.104  1.00  0.00     0.030 A 
HETATM   17  C21 UNK   900      37.849 -42.347 -60.901  1.00  0.00     0.002 A 
HETATM   18  C24 UNK   900      37.647 -41.430 -61.933  1.00  0.00     0.000 A 
HETATM   19  C22 UNK   900      37.164 -41.865 -63.167  1.00  0.00     0.002 A 
HETATM   20  C17 UNK   900      36.882 -43.216 -63.370  1.00  0.00     0.030 A 
ENDBRANCH  11  15
ENDBRANCH   1   5
BRANCH   1  21
HETATM   21  C3  UNK   900      33.572 -47.190 -61.377  1.00  0.00     0.077 C 
BRANCH  21  22
HETATM   22  C5  UNK   900      32.208 -46.595 -61.040  1.00  0.00     0.189 C 
HETATM   23  N3  UNK   900      31.258 -46.688 -62.156  1.00  0.00    -0.286 N 
HETATM   24  C11 UNK   900      30.362 -47.748 -62.244  1.00  0.00     0.133 A 
HETATM   25  C15 UNK   900      31.341 -45.720 -63.169  1.00  0.00     0.262 A 
HETATM   26  N5  UNK   900      29.541 -47.935 -63.230  1.00  0.00    -0.232 NA
HETATM   27  C12 UNK   900      30.353 -48.749 -61.107  1.00  0.00     0.150 C 
HETATM   28  C20 UNK   900      29.539 -47.005 -64.276  1.00  0.00     0.074 A 
HETATM   29  C19 UNK   900      30.397 -45.901 -64.293  1.00  0.00     0.061 A 
HETATM   30  C25 UNK   900      28.650 -47.183 -65.342  1.00  0.00     0.032 A 
HETATM   31  C23 UNK   900      30.371 -44.989 -65.353  1.00  0.00     0.019 A 
HETATM   32  C26 UNK   900      29.478 -45.179 -66.406  1.00  0.00     0.001 A 
HETATM   33  C27 UNK   900      28.619 -46.276 -66.401  1.00  0.00     0.002 A 
HETATM   34  N4  UNK   900      30.624 -48.055 -59.869  1.00  0.00    -0.348 N 
HETATM   35  C18 UNK   900      31.252 -49.952 -61.332  1.00  0.00     0.040 C 
HETATM   36  C9  UNK   900      31.630 -47.126 -59.736  1.00  0.00     0.241 C 
HETATM   37  H19 UNK   900      30.211 -48.426 -59.019  1.00  0.00     0.163 HD
HETATM   38  O3  UNK   900      32.087 -46.787 -58.644  1.00  0.00    -0.271 OA
HETATM   39  O4  UNK   900      32.124 -44.775 -63.186  1.00  0.00    -0.267 OA
ENDBRANCH  21  22
ENDBRANCH   1  21
TORSDOF 6
ENDMDL
MODEL 5
REMARK VINA RESULT:      -7.4     25.812     30.206
REMARK  6 active torsions:
REMARK  status: ('A' for Active; 'I' for Inactive)
REMARK    1  A    between atoms: O1_1  and  C2_11 
REMARK    2  A    between atoms: N2_6  and  C10_19 
REMARK    3  A    between atoms: C1_10  and  C2_11 
REMARK    4  A    between atoms: C2_11  and  C3_12 
REMARK    5  A    between atoms: C3_12  and  C5_14 
REMARK    6  A    between atoms: C4_13  and  C7_16 
ROOT
HETATM    1  C2  UNK   900       4.982 -49.819 -77.503  1.00  0.00     0.105 C 
HETATM    2  C8  UNK   900       4.282 -50.965 -76.766  1.00  0.00     0.050 C 
ENDROOT
BRANCH   1   3
HETATM    3  O1  UNK   900       3.978 -48.905 -77.950  1.00  0.00    -0.386 OA
HETATM    4  H11 UNK   900       4.120 -48.718 -78.893  1.00  0.00     0.210 HD
ENDBRANCH   1   3
BRANCH   1   5
HETATM    5  C1  UNK   900       5.693 -50.361 -78.745  1.00  0.00     0.363 C 
HETATM    6  N1  UNK   900       4.878 -50.133 -79.941  1.00  0.00     0.124 N 
HETATM    7  C4  UNK   900       4.066 -51.333 -80.117  1.00  0.00     0.318 C 
HETATM    8  H5  UNK   900       5.524 -50.057 -80.728  1.00  0.00     0.319 HD
HETATM    9  C6  UNK   900       4.921 -52.433 -79.522  1.00  0.00     0.260 C 
HETATM   10  O2  UNK   900       4.733 -53.620 -79.741  1.00  0.00    -0.271 OA
HETATM   11  N2  UNK   900       5.875 -51.800 -78.707  1.00  0.00    -0.282 N 
BRANCH   7  12
HETATM   12  C7  UNK   900       3.751 -51.569 -81.583  1.00  0.00     0.020 C 
HETATM   13  C13 UNK   900       2.744 -50.538 -82.096  1.00  0.00     0.012 C 
HETATM   14  C14 UNK   900       5.027 -51.529 -82.426  1.00  0.00     0.012 C 
ENDBRANCH   7  12
BRANCH  11  15
HETATM   15  C10 UNK   900       6.900 -52.440 -77.942  1.00  0.00     0.039 A 
HETATM   16  C16 UNK   900       6.656 -53.677 -77.345  1.00  0.00     0.030 A 
HETATM   17  C21 UNK   900       7.656 -54.301 -76.599  1.00  0.00     0.002 A 
HETATM   18  C24 UNK   900       8.900 -53.689 -76.450  1.00  0.00     0.000 A 
HETATM   19  C22 UNK   900       9.145 -52.452 -77.047  1.00  0.00     0.002 A 
HETATM   20  C17 UNK   900       8.145 -51.827 -77.793  1.00  0.00     0.030 A 
ENDBRANCH  11  15
ENDBRANCH   1   5
BRANCH   1  21
HETATM   21  C3  UNK   900       5.947 -49.090 -76.547  1.00  0.00     0.077 C 
BRANCH  21  22
HETATM   22  C5  UNK   900       5.537 -49.137 -75.078  1.00  0.00     0.189 C 
HETATM   23  N3  UNK   900       6.688 -49.253 -74.172  1.00  0.00    -0.286 N 
HETATM   24  C11 UNK   900       7.258 -48.125 -73.594  1.00  0.00     0.133 A 
HETATM   25  C15 UNK   900       7.241 -50.529 -73.977  1.00  0.00     0.262 A 
HETATM   26  N5  UNK   900       8.312 -48.139 -72.840  1.00  0.00    -0.232 NA
HETATM   27  C12 UNK   900       6.597 -46.790 -73.872  1.00  0.00     0.150 C 
HETATM   28  C20 UNK   900       8.918 -49.373 -72.572  1.00  0.00     0.074 A 
HETATM   29  C19 UNK   900       8.431 -50.572 -73.101  1.00  0.00     0.061 A 
HETATM   30  C25 UNK   900      10.049 -49.409 -71.749  1.00  0.00     0.032 A 
HETATM   31  C23 UNK   900       9.059 -51.789 -72.814  1.00  0.00     0.019 A 
HETATM   32  C26 UNK   900      10.183 -51.809 -71.991  1.00  0.00     0.001 A 
HETATM   33  C27 UNK   900      10.679 -50.620 -71.459  1.00  0.00     0.002 A 
HETATM   34  N4  UNK   900       5.168 -46.985 -73.963  1.00  0.00    -0.348 N 
HETATM   35  C18 UNK   900       7.180 -46.043 -75.059  1.00  0.00     0.040 C 
HETATM   36  C9  UNK   900       4.596 -48.009 -74.684  1.00  0.00     0.241 C 
HETATM   37  H19 UNK   900       4.567 -46.218 -73.678  1.00  0.00     0.163 HD
HETATM   38  O3  UNK   900       3.420 -47.994 -75.048  1.00  0.00    -0.271 OA
HETATM   39  O4  UNK   900       6.822 -51.569 -74.475  1.00  0.00    -0.267 OA
ENDBRANCH  21  22
ENDBRANCH   1  21
TORSDOF 6
ENDMDL
MODEL 6
REMARK VINA RESULT:      -7.2     26.148     30.070
REMARK  6 active torsions:
REMARK  status: ('A' for Active; 'I' for Inactive)
REMARK    1  A    between atoms: O1_1  and  C2_11 
REMARK    2  A    between atoms: N2_6  and  C10_19 
REMARK    3  A    between atoms: C1_10  and  C2_11 
REMARK    4  A    between atoms: C2_11  and  C3_12 
REMARK    5  A    between atoms: C3_12  and  C5_14 
REMARK    6  A    between atoms: C4_13  and  C7_16 
ROOT
HETATM    1  C2  UNK   900       6.566 -49.346 -74.869  1.00  0.00     0.105 C 
HETATM    2  C8  UNK   900       7.253 -50.506 -75.598  1.00  0.00     0.050 C 
ENDROOT
BRANCH   1   3
HETATM    3  O1  UNK   900       7.541 -48.325 -74.651  1.00  0.00    -0.386 OA
HETATM    4  H11 UNK   900       7.234 -47.502 -75.069  1.00  0.00     0.210 HD
ENDBRANCH   1   3
BRANCH   1   5
HETATM    5  C1  UNK   900       6.079 -49.815 -73.496  1.00  0.00     0.363 C 
HETATM    6  N1  UNK   900       4.769 -49.232 -73.192  1.00  0.00     0.124 N 
HETATM    7  C4  UNK   900       5.032 -47.994 -72.464  1.00  0.00     0.318 C 
HETATM    8  H5  UNK   900       4.294 -49.885 -72.566  1.00  0.00     0.319 HD
HETATM    9  C6  UNK   900       6.342 -48.268 -71.754  1.00  0.00     0.260 C 
HETATM   10  O2  UNK   900       6.746 -47.601 -70.814  1.00  0.00    -0.271 OA
HETATM   11  N2  UNK   900       6.930 -49.362 -72.412  1.00  0.00    -0.282 N 
BRANCH   7  12
HETATM   12  C7  UNK   900       3.902 -47.678 -71.501  1.00  0.00     0.020 C 
HETATM   13  C13 UNK   900       2.843 -46.802 -72.172  1.00  0.00     0.012 C 
HETATM   14  C14 UNK   900       3.267 -48.964 -70.967  1.00  0.00     0.012 C 
ENDBRANCH   7  12
BRANCH  11  15
HETATM   15  C10 UNK   900       8.180 -49.978 -72.087  1.00  0.00     0.039 A 
HETATM   16  C16 UNK   900       8.267 -51.366 -71.984  1.00  0.00     0.030 A 
HETATM   17  C21 UNK   900       9.486 -51.967 -71.668  1.00  0.00     0.002 A 
HETATM   18  C24 UNK   900      10.617 -51.179 -71.455  1.00  0.00     0.000 A 
HETATM   19  C22 UNK   900      10.530 -49.791 -71.559  1.00  0.00     0.002 A 
HETATM   20  C17 UNK   900       9.311 -49.190 -71.875  1.00  0.00     0.030 A 
ENDBRANCH  11  15
ENDBRANCH   1   5
BRANCH   1  21
HETATM   21  C3  UNK   900       5.422 -48.784 -75.736  1.00  0.00     0.077 C 
BRANCH  21  22
HETATM   22  C5  UNK   900       5.882 -48.068 -77.002  1.00  0.00     0.189 C 
HETATM   23  N3  UNK   900       5.087 -48.436 -78.182  1.00  0.00    -0.286 N 
HETATM   24  C11 UNK   900       4.003 -47.663 -78.582  1.00  0.00     0.133 A 
HETATM   25  C15 UNK   900       5.407 -49.635 -78.839  1.00  0.00     0.262 A 
HETATM   26  N5  UNK   900       3.215 -47.958 -79.568  1.00  0.00    -0.232 NA
HETATM   27  C12 UNK   900       3.729 -46.392 -77.804  1.00  0.00     0.150 C 
HETATM   28  C20 UNK   900       3.473 -49.126 -80.296  1.00  0.00     0.074 A 
HETATM   29  C19 UNK   900       4.536 -49.979 -79.982  1.00  0.00     0.061 A 
HETATM   30  C25 UNK   900       2.642 -49.453 -81.373  1.00  0.00     0.032 A 
HETATM   31  C23 UNK   900       4.767 -51.139 -80.728  1.00  0.00     0.019 A 
HETATM   32  C26 UNK   900       3.931 -51.450 -81.799  1.00  0.00     0.001 A 
HETATM   33  C27 UNK   900       2.869 -50.608 -82.121  1.00  0.00     0.002 A 
HETATM   34  N4  UNK   900       4.987 -45.818 -77.387  1.00  0.00    -0.348 N 
HETATM   35  C18 UNK   900       2.737 -46.561 -76.667  1.00  0.00     0.040 C 
HETATM   36  C9  UNK   900       6.001 -46.561 -76.827  1.00  0.00     0.241 C 
HETATM   37  H19 UNK   900       5.039 -44.808 -77.293  1.00  0.00     0.163 HD
HETATM   38  O3  UNK   900       6.914 -46.060 -76.169  1.00  0.00    -0.271 OA
HETATM   39  O4  UNK   900       6.323 -50.392 -78.530  1.00  0.00    -0.267 OA
ENDBRANCH  21  22
ENDBRANCH   1  21
TORSDOF 6
ENDMDL
MODEL 7
REMARK VINA RESULT:      -7.2     23.406     27.319
REMARK  6 active torsions:
REMARK  status: ('A' for Active; 'I' for Inactive)
REMARK    1  A    between atoms: O1_1  and  C2_11 
REMARK    2  A    between atoms: N2_6  and  C10_19 
REMARK    3  A    between atoms: C1_10  and  C2_11 
REMARK    4  A    between atoms: C2_11  and  C3_12 
REMARK    5  A    between atoms: C3_12  and  C5_14 
REMARK    6  A    between atoms: C4_13  and  C7_16 
ROOT
HETATM    1  C2  UNK   900      14.599 -64.736 -67.957  1.00  0.00     0.105 C 
HETATM    2  C8  UNK   900      13.130 -65.112 -67.744  1.00  0.00     0.050 C 
ENDROOT
BRANCH   1   3
HETATM    3  O1  UNK   900      14.861 -63.543 -67.216  1.00  0.00    -0.386 OA
HETATM    4  H11 UNK   900      15.773 -63.573 -66.881  1.00  0.00     0.210 HD
ENDBRANCH   1   3
BRANCH   1   5
HETATM    5  C1  UNK   900      14.842 -64.419 -69.435  1.00  0.00     0.363 C 
HETATM    6  N1  UNK   900      16.255 -64.614 -69.774  1.00  0.00     0.124 N 
HETATM    7  C4  UNK   900      16.902 -63.319 -69.587  1.00  0.00     0.318 C 
HETATM    8  H5  UNK   900      16.289 -64.857 -70.765  1.00  0.00     0.319 HD
HETATM    9  C6  UNK   900      15.796 -62.323 -69.870  1.00  0.00     0.260 C 
HETATM   10  O2  UNK   900      16.004 -61.143 -70.113  1.00  0.00    -0.271 OA
HETATM   11  N2  UNK   900      14.586 -63.030 -69.763  1.00  0.00    -0.282 N 
BRANCH   7  12
HETATM   12  C7  UNK   900      18.084 -63.160 -70.526  1.00  0.00     0.020 C 
HETATM   13  C13 UNK   900      19.375 -63.643 -69.863  1.00  0.00     0.012 C 
HETATM   14  C14 UNK   900      17.844 -63.915 -71.835  1.00  0.00     0.012 C 
ENDBRANCH   7  12
BRANCH  11  15
HETATM   15  C10 UNK   900      13.271 -62.498 -69.950  1.00  0.00     0.039 A 
HETATM   16  C16 UNK   900      12.752 -61.582 -69.036  1.00  0.00     0.030 A 
HETATM   17  C21 UNK   900      11.470 -61.064 -69.218  1.00  0.00     0.002 A 
HETATM   18  C24 UNK   900      10.707 -61.462 -70.316  1.00  0.00     0.000 A 
HETATM   19  C22 UNK   900      11.226 -62.379 -71.230  1.00  0.00     0.002 A 
HETATM   20  C17 UNK   900      12.508 -62.897 -71.048  1.00  0.00     0.030 A 
ENDBRANCH  11  15
ENDBRANCH   1   5
BRANCH   1  21
HETATM   21  C3  UNK   900      15.512 -65.867 -67.443  1.00  0.00     0.077 C 
BRANCH  21  22
HETATM   22  C5  UNK   900      16.117 -65.614 -66.065  1.00  0.00     0.189 C 
HETATM   23  N3  UNK   900      15.813 -66.687 -65.108  1.00  0.00    -0.286 N 
HETATM   24  C11 UNK   900      16.707 -67.731 -64.900  1.00  0.00     0.133 A 
HETATM   25  C15 UNK   900      14.561 -66.663 -64.474  1.00  0.00     0.262 A 
HETATM   26  N5  UNK   900      16.482 -68.746 -64.125  1.00  0.00    -0.232 NA
HETATM   27  C12 UNK   900      18.029 -67.674 -65.637  1.00  0.00     0.150 C 
HETATM   28  C20 UNK   900      15.265 -68.795 -63.434  1.00  0.00     0.074 A 
HETATM   29  C19 UNK   900      14.293 -67.799 -63.567  1.00  0.00     0.061 A 
HETATM   30  C25 UNK   900      15.012 -69.875 -62.581  1.00  0.00     0.032 A 
HETATM   31  C23 UNK   900      13.086 -67.877 -62.863  1.00  0.00     0.019 A 
HETATM   32  C26 UNK   900      12.850 -68.959 -62.016  1.00  0.00     0.001 A 
HETATM   33  C27 UNK   900      13.811 -69.958 -61.876  1.00  0.00     0.002 A 
HETATM   34  N4  UNK   900      18.449 -66.296 -65.740  1.00  0.00    -0.348 N 
HETATM   35  C18 UNK   900      18.031 -68.406 -66.968  1.00  0.00     0.040 C 
HETATM   36  C9  UNK   900      17.600 -65.280 -66.116  1.00  0.00     0.241 C 
HETATM   37  H19 UNK   900      19.446 -66.105 -65.756  1.00  0.00     0.163 HD
HETATM   38  O3  UNK   900      18.002 -64.193 -66.531  1.00  0.00    -0.271 OA
HETATM   39  O4  UNK   900      13.703 -65.799 -64.628  1.00  0.00    -0.267 OA
ENDBRANCH  21  22
ENDBRANCH   1  21
TORSDOF 6
ENDMDL
MODEL 8
REMARK VINA RESULT:      -7.1      2.815      4.035
REMARK  6 active torsions:
REMARK  status: ('A' for Active; 'I' for Inactive)
REMARK    1  A    between atoms: O1_1  and  C2_11 
REMARK    2  A    between atoms: N2_6  and  C10_19 
REMARK    3  A    between atoms: C1_10  and  C2_11 
REMARK    4  A    between atoms: C2_11  and  C3_12 
REMARK    5  A    between atoms: C3_12  and  C5_14 
REMARK    6  A    between atoms: C4_13  and  C7_16 
ROOT
HETATM    1  C2  UNK   900      35.238 -47.850 -64.338  1.00  0.00     0.105 C 
HETATM    2  C8  UNK   900      35.205 -48.450 -65.747  1.00  0.00     0.050 C 
ENDROOT
BRANCH   1   3
HETATM    3  O1  UNK   900      35.767 -46.527 -64.435  1.00  0.00    -0.386 OA
HETATM    4  H11 UNK   900      35.987 -46.209 -63.543  1.00  0.00     0.210 HD
ENDBRANCH   1   3
BRANCH   1   5
HETATM    5  C1  UNK   900      36.190 -48.660 -63.454  1.00  0.00     0.363 C 
HETATM    6  N1  UNK   900      35.474 -49.767 -62.812  1.00  0.00     0.124 N 
HETATM    7  C4  UNK   900      35.013 -49.261 -61.523  1.00  0.00     0.318 C 
HETATM    8  H5  UNK   900      36.160 -50.505 -62.647  1.00  0.00     0.319 HD
HETATM    9  C6  UNK   900      36.049 -48.219 -61.156  1.00  0.00     0.260 C 
HETATM   10  O2  UNK   900      36.189 -47.783 -60.023  1.00  0.00    -0.271 OA
HETATM   11  N2  UNK   900      36.722 -47.891 -62.345  1.00  0.00    -0.282 N 
BRANCH   7  12
HETATM   12  C7  UNK   900      34.924 -50.379 -60.499  1.00  0.00     0.020 C 
HETATM   13  C13 UNK   900      33.481 -50.864 -60.346  1.00  0.00     0.012 C 
HETATM   14  C14 UNK   900      35.837 -51.544 -60.886  1.00  0.00     0.012 C 
ENDBRANCH   7  12
BRANCH  11  15
HETATM   15  C10 UNK   900      37.788 -46.947 -62.487  1.00  0.00     0.039 A 
HETATM   16  C16 UNK   900      39.012 -47.353 -63.018  1.00  0.00     0.030 A 
HETATM   17  C21 UNK   900      40.052 -46.434 -63.156  1.00  0.00     0.002 A 
HETATM   18  C24 UNK   900      39.867 -45.108 -62.764  1.00  0.00     0.000 A 
HETATM   19  C22 UNK   900      38.643 -44.702 -62.234  1.00  0.00     0.002 A 
HETATM   20  C17 UNK   900      37.603 -45.621 -62.095  1.00  0.00     0.030 A 
ENDBRANCH  11  15
ENDBRANCH   1   5
BRANCH   1  21
HETATM   21  C3  UNK   900      33.810 -47.789 -63.759  1.00  0.00     0.077 C 
BRANCH  21  22
HETATM   22  C5  UNK   900      33.120 -46.438 -63.924  1.00  0.00     0.189 C 
HETATM   23  N3  UNK   900      31.756 -46.562 -64.456  1.00  0.00    -0.286 N 
HETATM   24  C11 UNK   900      30.659 -46.602 -63.603  1.00  0.00     0.133 A 
HETATM   25  C15 UNK   900      31.606 -46.718 -65.843  1.00  0.00     0.262 A 
HETATM   26  N5  UNK   900      29.434 -46.776 -63.991  1.00  0.00    -0.232 NA
HETATM   27  C12 UNK   900      30.921 -46.435 -62.120  1.00  0.00     0.150 C 
HETATM   28  C20 UNK   900      29.187 -46.919 -65.362  1.00  0.00     0.074 A 
HETATM   29  C19 UNK   900      30.214 -46.894 -66.310  1.00  0.00     0.061 A 
HETATM   30  C25 UNK   900      27.869 -47.093 -65.800  1.00  0.00     0.032 A 
HETATM   31  C23 UNK   900      29.935 -47.039 -67.673  1.00  0.00     0.019 A 
HETATM   32  C26 UNK   900      28.617 -47.209 -68.093  1.00  0.00     0.001 A 
HETATM   33  C27 UNK   900      27.585 -47.237 -67.158  1.00  0.00     0.002 A 
HETATM   34  N4  UNK   900      32.017 -45.511 -61.940  1.00  0.00    -0.348 N 
HETATM   35  C18 UNK   900      31.106 -47.744 -61.371  1.00  0.00     0.040 C 
HETATM   36  C9  UNK   900      33.182 -45.579 -62.670  1.00  0.00     0.241 C 
HETATM   37  H19 UNK   900      32.021 -44.941 -61.100  1.00  0.00     0.163 HD
HETATM   38  O3  UNK   900      34.229 -45.039 -62.310  1.00  0.00    -0.271 OA
HETATM   39  O4  UNK   900      32.522 -46.728 -66.660  1.00  0.00    -0.267 OA
ENDBRANCH  21  22
ENDBRANCH   1  21
TORSDOF 6
ENDMDL
MODEL 9
REMARK VINA RESULT:      -7.1     26.022     30.170
REMARK  6 active torsions:
REMARK  status: ('A' for Active; 'I' for Inactive)
REMARK    1  A    between atoms: O1_1  and  C2_11 
REMARK    2  A    between atoms: N2_6  and  C10_19 
REMARK    3  A    between atoms: C1_10  and  C2_11 
REMARK    4  A    between atoms: C2_11  and  C3_12 
REMARK    5  A    between atoms: C3_12  and  C5_14 
REMARK    6  A    between atoms: C4_13  and  C7_16 
ROOT
HETATM    1  C2  UNK   900       6.564 -49.388 -74.863  1.00  0.00     0.105 C 
HETATM    2  C8  UNK   900       5.895 -50.393 -73.920  1.00  0.00     0.050 C 
ENDROOT
BRANCH   1   3
HETATM    3  O1  UNK   900       7.330 -50.125 -75.819  1.00  0.00    -0.386 OA
HETATM    4  H11 UNK   900       8.165 -49.654 -75.983  1.00  0.00     0.210 HD
ENDBRANCH   1   3
BRANCH   1   5
HETATM    5  C1  UNK   900       7.538 -48.508 -74.076  1.00  0.00     0.363 C 
HETATM    6  N1  UNK   900       8.664 -49.307 -73.583  1.00  0.00     0.124 N 
HETATM    7  C4  UNK   900       8.290 -49.759 -72.246  1.00  0.00     0.318 C 
HETATM    8  H5  UNK   900       9.461 -48.674 -73.503  1.00  0.00     0.319 HD
HETATM    9  C6  UNK   900       7.372 -48.664 -71.743  1.00  0.00     0.260 C 
HETATM   10  O2  UNK   900       7.089 -48.517 -70.563  1.00  0.00    -0.271 OA
HETATM   11  N2  UNK   900       6.947 -47.949 -72.875  1.00  0.00    -0.282 N 
BRANCH   7  12
HETATM   12  C7  UNK   900       9.516 -49.939 -71.370  1.00  0.00     0.020 C 
HETATM   13  C13 UNK   900       9.735 -51.417 -71.038  1.00  0.00     0.012 C 
HETATM   14  C14 UNK   900      10.759 -49.357 -72.046  1.00  0.00     0.012 C 
ENDBRANCH   7  12
BRANCH  11  15
HETATM   15  C10 UNK   900       6.067 -46.820 -72.888  1.00  0.00     0.039 A 
HETATM   16  C16 UNK   900       6.578 -45.539 -73.095  1.00  0.00     0.030 A 
HETATM   17  C21 UNK   900       5.720 -44.439 -73.108  1.00  0.00     0.002 A 
HETATM   18  C24 UNK   900       4.351 -44.621 -72.914  1.00  0.00     0.000 A 
HETATM   19  C22 UNK   900       3.839 -45.902 -72.707  1.00  0.00     0.002 A 
HETATM   20  C17 UNK   900       4.697 -47.002 -72.694  1.00  0.00     0.030 A 
ENDBRANCH  11  15
ENDBRANCH   1   5
BRANCH   1  21
HETATM   21  C3  UNK   900       5.490 -48.561 -75.598  1.00  0.00     0.077 C 
BRANCH  21  22
HETATM   22  C5  UNK   900       5.963 -47.929 -76.903  1.00  0.00     0.189 C 
HETATM   23  N3  UNK   900       5.143 -48.329 -78.055  1.00  0.00    -0.286 N 
HETATM   24  C11 UNK   900       4.085 -47.539 -78.487  1.00  0.00     0.133 A 
HETATM   25  C15 UNK   900       5.414 -49.571 -78.651  1.00  0.00     0.262 A 
HETATM   26  N5  UNK   900       3.277 -47.855 -79.450  1.00  0.00    -0.232 NA
HETATM   27  C12 UNK   900       3.864 -46.220 -77.774  1.00  0.00     0.150 C 
HETATM   28  C20 UNK   900       3.486 -49.069 -80.118  1.00  0.00     0.074 A 
HETATM   29  C19 UNK   900       4.520 -49.942 -79.768  1.00  0.00     0.061 A 
HETATM   30  C25 UNK   900       2.633 -49.420 -81.170  1.00  0.00     0.032 A 
HETATM   31  C23 UNK   900       4.703 -51.147 -80.455  1.00  0.00     0.019 A 
HETATM   32  C26 UNK   900       3.846 -51.482 -81.502  1.00  0.00     0.001 A 
HETATM   33  C27 UNK   900       2.811 -50.621 -81.859  1.00  0.00     0.002 A 
HETATM   34  N4  UNK   900       5.146 -45.671 -77.397  1.00  0.00    -0.348 N 
HETATM   35  C18 UNK   900       2.877 -46.294 -76.622  1.00  0.00     0.040 C 
HETATM   36  C9  UNK   900       6.138 -46.421 -76.807  1.00  0.00     0.241 C 
HETATM   37  H19 UNK   900       5.235 -44.660 -77.358  1.00  0.00     0.163 HD
HETATM   38  O3  UNK   900       7.074 -45.919 -76.184  1.00  0.00    -0.271 OA
HETATM   39  O4  UNK   900       6.306 -50.344 -78.311  1.00  0.00    -0.267 OA
ENDBRANCH  21  22
ENDBRANCH   1  21
TORSDOF 6
ENDMDL
