MODEL 1
REMARK VINA RESULT:      -4.7      0.000      0.000
REMARK  6 active torsions:
REMARK  status: ('A' for Active; 'I' for Inactive)
REMARK    1  A    between atoms: O1_1  and  C3_5 
REMARK    2  A    between atoms: C1_3  and  C2_4 
REMARK    3  A    between atoms: C2_4  and  C4_6 
REMARK    4  A    between atoms: C3_5  and  C4_6 
REMARK    5  A    between atoms: C3_5  and  C5_7 
REMARK    6  A    between atoms: C5_7  and  C8_10 
ROOT
HETATM    1  C3  UNK   900      26.423 -22.334 -75.542  1.00  0.00     0.191 C 
ENDROOT
BRANCH   1   2
HETATM    2  O1  UNK   900      27.652 -21.796 -76.010  1.00  0.00    -0.388 OA
HETATM    3  H15 UNK   900      27.535 -21.542 -76.941  1.00  0.00     0.210 HD
ENDBRANCH   1   2
BRANCH   1   4
HETATM    4  C4  UNK   900      26.173 -23.649 -76.272  1.00  0.00     0.155 C 
HETATM    5  O2  UNK   900      26.735 -23.913 -77.337  1.00  0.00    -0.295 OA
BRANCH   4   6
HETATM    6  C2  UNK   900      25.213 -24.628 -75.607  1.00  0.00     0.085 C 
BRANCH   6   7
HETATM    7  C1  UNK   900      23.735 -24.316 -75.887  1.00  0.00    -0.016 C 
HETATM    8  C6  UNK   900      23.136 -25.389 -76.798  1.00  0.00     0.010 C 
HETATM    9  C7  UNK   900      22.929 -24.228 -74.589  1.00  0.00     0.010 C 
ENDBRANCH   6   7
ENDBRANCH   4   6
ENDBRANCH   1   4
BRANCH   1  10
HETATM   10  C5  UNK   900      26.480 -22.537 -74.026  1.00  0.00     0.078 C 
BRANCH  10  11
HETATM   11  C8  UNK   900      25.282 -21.940 -73.327  1.00  0.00    -0.055 A 
HETATM   12  C9  UNK   900      24.923 -22.384 -72.055  1.00  0.00     0.007 A 
HETATM   13  C11 UNK   900      23.817 -21.831 -71.410  1.00  0.00     0.001 A 
HETATM   14  C13 UNK   900      23.069 -20.834 -72.037  1.00  0.00     0.000 A 
HETATM   15  C12 UNK   900      23.430 -20.389 -73.310  1.00  0.00     0.001 A 
HETATM   16  C10 UNK   900      24.536 -20.941 -73.955  1.00  0.00     0.007 A 
ENDBRANCH  10  11
ENDBRANCH   1  10
TORSDOF 6
ENDMDL
MODEL 2
REMARK VINA RESULT:      -4.2     24.587     27.021
REMARK  6 active torsions:
REMARK  status: ('A' for Active; 'I' for Inactive)
REMARK    1  A    between atoms: O1_1  and  C3_5 
REMARK    2  A    between atoms: C1_3  and  C2_4 
REMARK    3  A    between atoms: C2_4  and  C4_6 
REMARK    4  A    between atoms: C3_5  and  C4_6 
REMARK    5  A    between atoms: C3_5  and  C5_7 
REMARK    6  A    between atoms: C5_7  and  C8_10 
ROOT
HETATM    1  C3  UNK   900      26.693 -41.653 -93.592  1.00  0.00     0.191 C 
ENDROOT
BRANCH   1   2
HETATM    2  O1  UNK   900      28.063 -41.553 -93.955  1.00  0.00    -0.388 OA
HETATM    3  H15 UNK   900      28.449 -42.445 -93.925  1.00  0.00     0.210 HD
ENDBRANCH   1   2
BRANCH   1   4
HETATM    4  C4  UNK   900      26.503 -42.948 -92.810  1.00  0.00     0.155 C 
HETATM    5  O2  UNK   900      27.133 -43.176 -91.776  1.00  0.00    -0.295 OA
BRANCH   4   6
HETATM    6  C2  UNK   900      25.481 -43.935 -93.361  1.00  0.00     0.085 C 
BRANCH   6   7
HETATM    7  C1  UNK   900      26.107 -45.046 -94.218  1.00  0.00    -0.016 C 
HETATM    8  C6  UNK   900      25.399 -46.375 -93.952  1.00  0.00     0.010 C 
HETATM    9  C7  UNK   900      26.034 -44.708 -95.709  1.00  0.00     0.010 C 
ENDBRANCH   6   7
ENDBRANCH   4   6
ENDBRANCH   1   4
BRANCH   1  10
HETATM   10  C5  UNK   900      26.277 -40.434 -92.765  1.00  0.00     0.078 C 
BRANCH  10  11
HETATM   11  C8  UNK   900      25.866 -39.271 -93.635  1.00  0.00    -0.055 A 
HETATM   12  C9  UNK   900      25.334 -39.502 -94.904  1.00  0.00     0.007 A 
HETATM   13  C11 UNK   900      24.954 -38.427 -95.707  1.00  0.00     0.001 A 
HETATM   14  C13 UNK   900      25.106 -37.120 -95.243  1.00  0.00     0.000 A 
HETATM   15  C12 UNK   900      25.638 -36.889 -93.973  1.00  0.00     0.001 A 
HETATM   16  C10 UNK   900      26.018 -37.964 -93.170  1.00  0.00     0.007 A 
ENDBRANCH  10  11
ENDBRANCH   1  10
TORSDOF 6
ENDMDL
MODEL 3
REMARK VINA RESULT:      -4.2      1.915      4.865
REMARK  6 active torsions:
REMARK  status: ('A' for Active; 'I' for Inactive)
REMARK    1  A    between atoms: O1_1  and  C3_5 
REMARK    2  A    between atoms: C1_3  and  C2_4 
REMARK    3  A    between atoms: C2_4  and  C4_6 
REMARK    4  A    between atoms: C3_5  and  C4_6 
REMARK    5  A    between atoms: C3_5  and  C5_7 
REMARK    6  A    between atoms: C5_7  and  C8_10 
ROOT
HETATM    1  C3  UNK   900      26.543 -21.639 -73.457  1.00  0.00     0.191 C 
ENDROOT
BRANCH   1   2
HETATM    2  O1  UNK   900      27.849 -21.692 -74.015  1.00  0.00    -0.388 OA
HETATM    3  H15 UNK   900      27.965 -20.914 -74.587  1.00  0.00     0.210 HD
ENDBRANCH   1   2
BRANCH   1   4
HETATM    4  C4  UNK   900      26.541 -20.584 -72.356  1.00  0.00     0.155 C 
HETATM    5  O2  UNK   900      27.590 -20.143 -71.883  1.00  0.00    -0.295 OA
BRANCH   4   6
HETATM    6  C2  UNK   900      25.178 -20.087 -71.889  1.00  0.00     0.085 C 
BRANCH   6   7
HETATM    7  C1  UNK   900      24.521 -21.005 -70.846  1.00  0.00    -0.016 C 
HETATM    8  C6  UNK   900      24.833 -20.503 -69.436  1.00  0.00     0.010 C 
HETATM    9  C7  UNK   900      23.006 -21.081 -71.047  1.00  0.00     0.010 C 
ENDBRANCH   6   7
ENDBRANCH   4   6
ENDBRANCH   1   4
BRANCH   1  10
HETATM   10  C5  UNK   900      25.518 -21.314 -74.547  1.00  0.00     0.078 C 
BRANCH  10  11
HETATM   11  C8  UNK   900      24.642 -22.498 -74.873  1.00  0.00    -0.055 A 
HETATM   12  C9  UNK   900      24.513 -22.928 -76.194  1.00  0.00     0.007 A 
HETATM   13  C11 UNK   900      23.703 -24.023 -76.495  1.00  0.00     0.001 A 
HETATM   14  C13 UNK   900      23.021 -24.689 -75.475  1.00  0.00     0.000 A 
HETATM   15  C12 UNK   900      23.151 -24.259 -74.154  1.00  0.00     0.001 A 
HETATM   16  C10 UNK   900      23.961 -23.164 -73.853  1.00  0.00     0.007 A 
ENDBRANCH  10  11
ENDBRANCH   1  10
TORSDOF 6
ENDMDL
MODEL 4
REMARK VINA RESULT:      -4.0     57.329     59.605
REMARK  6 active torsions:
REMARK  status: ('A' for Active; 'I' for Inactive)
REMARK    1  A    between atoms: O1_1  and  C3_5 
REMARK    2  A    between atoms: C1_3  and  C2_4 
REMARK    3  A    between atoms: C2_4  and  C4_6 
REMARK    4  A    between atoms: C3_5  and  C4_6 
REMARK    5  A    between atoms: C3_5  and  C5_7 
REMARK    6  A    between atoms: C5_7  and  C8_10 
ROOT
HETATM    1  C3  UNK   900       9.542 -78.271 -64.049  1.00  0.00     0.191 C 
ENDROOT
BRANCH   1   2
HETATM    2  O1  UNK   900       9.376 -77.502 -65.232  1.00  0.00    -0.388 OA
HETATM    3  H15 UNK   900      10.016 -77.818 -65.891  1.00  0.00     0.210 HD
ENDBRANCH   1   2
BRANCH   1   4
HETATM    4  C4  UNK   900      10.325 -77.431 -63.045  1.00  0.00     0.155 C 
HETATM    5  O2  UNK   900       9.796 -76.506 -62.426  1.00  0.00    -0.295 OA
BRANCH   4   6
HETATM    6  C2  UNK   900      11.785 -77.809 -62.829  1.00  0.00     0.085 C 
BRANCH   6   7
HETATM    7  C1  UNK   900      12.480 -76.964 -61.751  1.00  0.00    -0.016 C 
HETATM    8  C6  UNK   900      13.299 -77.866 -60.825  1.00  0.00     0.010 C 
HETATM    9  C7  UNK   900      13.386 -75.900 -62.374  1.00  0.00     0.010 C 
ENDBRANCH   6   7
ENDBRANCH   4   6
ENDBRANCH   1   4
BRANCH   1  10
HETATM   10  C5  UNK   900       8.178 -78.683 -63.492  1.00  0.00     0.078 C 
BRANCH  10  11
HETATM   11  C8  UNK   900       7.786 -80.076 -63.923  1.00  0.00    -0.055 A 
HETATM   12  C9  UNK   900       6.462 -80.497 -63.801  1.00  0.00     0.007 A 
HETATM   13  C11 UNK   900       6.100 -81.784 -64.199  1.00  0.00     0.001 A 
HETATM   14  C13 UNK   900       7.062 -82.650 -64.721  1.00  0.00     0.000 A 
HETATM   15  C12 UNK   900       8.386 -82.227 -64.844  1.00  0.00     0.001 A 
HETATM   16  C10 UNK   900       8.748 -80.940 -64.445  1.00  0.00     0.007 A 
ENDBRANCH  10  11
ENDBRANCH   1  10
TORSDOF 6
ENDMDL
MODEL 5
REMARK VINA RESULT:      -4.0     13.784     15.369
REMARK  6 active torsions:
REMARK  status: ('A' for Active; 'I' for Inactive)
REMARK    1  A    between atoms: O1_1  and  C3_5 
REMARK    2  A    between atoms: C1_3  and  C2_4 
REMARK    3  A    between atoms: C2_4  and  C4_6 
REMARK    4  A    between atoms: C3_5  and  C4_6 
REMARK    5  A    between atoms: C3_5  and  C5_7 
REMARK    6  A    between atoms: C5_7  and  C8_10 
ROOT
HETATM    1  C3  UNK   900      32.484 -21.509 -61.404  1.00  0.00     0.191 C 
ENDROOT
BRANCH   1   2
HETATM    2  O1  UNK   900      33.722 -21.327 -62.077  1.00  0.00    -0.388 OA
HETATM    3  H15 UNK   900      34.436 -21.410 -61.424  1.00  0.00     0.210 HD
ENDBRANCH   1   2
BRANCH   1   4
HETATM    4  C4  UNK   900      31.818 -20.145 -61.260  1.00  0.00     0.155 C 
HETATM    5  O2  UNK   900      31.776 -19.344 -62.196  1.00  0.00    -0.295 OA
BRANCH   4   6
HETATM    6  C2  UNK   900      31.188 -19.832 -59.908  1.00  0.00     0.085 C 
BRANCH   6   7
HETATM    7  C1  UNK   900      29.653 -19.784 -59.948  1.00  0.00    -0.016 C 
HETATM    8  C6  UNK   900      29.075 -20.438 -58.693  1.00  0.00     0.010 C 
HETATM    9  C7  UNK   900      29.143 -18.345 -60.065  1.00  0.00     0.010 C 
ENDBRANCH   6   7
ENDBRANCH   4   6
ENDBRANCH   1   4
BRANCH   1  10
HETATM   10  C5  UNK   900      31.599 -22.484 -62.184  1.00  0.00     0.078 C 
BRANCH  10  11
HETATM   11  C8  UNK   900      30.461 -23.014 -61.345  1.00  0.00    -0.055 A 
HETATM   12  C9  UNK   900      30.720 -23.575 -60.094  1.00  0.00     0.007 A 
HETATM   13  C11 UNK   900      29.668 -24.065 -59.319  1.00  0.00     0.001 A 
HETATM   14  C13 UNK   900      28.358 -23.993 -59.794  1.00  0.00     0.000 A 
HETATM   15  C12 UNK   900      28.100 -23.431 -61.045  1.00  0.00     0.001 A 
HETATM   16  C10 UNK   900      29.152 -22.941 -61.821  1.00  0.00     0.007 A 
ENDBRANCH  10  11
ENDBRANCH   1  10
TORSDOF 6
ENDMDL
MODEL 6
REMARK VINA RESULT:      -3.8     58.210     60.387
REMARK  6 active torsions:
REMARK  status: ('A' for Active; 'I' for Inactive)
REMARK    1  A    between atoms: O1_1  and  C3_5 
REMARK    2  A    between atoms: C1_3  and  C2_4 
REMARK    3  A    between atoms: C2_4  and  C4_6 
REMARK    4  A    between atoms: C3_5  and  C4_6 
REMARK    5  A    between atoms: C3_5  and  C5_7 
REMARK    6  A    between atoms: C5_7  and  C8_10 
ROOT
HETATM    1  C3  UNK   900       9.846 -78.626 -64.383  1.00  0.00     0.191 C 
ENDROOT
BRANCH   1   2
HETATM    2  O1  UNK   900       9.636 -77.607 -65.351  1.00  0.00    -0.388 OA
HETATM    3  H15 UNK   900       9.388 -78.033 -66.189  1.00  0.00     0.210 HD
ENDBRANCH   1   2
BRANCH   1   4
HETATM    4  C4  UNK   900      10.964 -78.171 -63.451  1.00  0.00     0.155 C 
HETATM    5  O2  UNK   900      10.781 -77.295 -62.604  1.00  0.00    -0.295 OA
BRANCH   4   6
HETATM    6  C2  UNK   900      12.308 -78.871 -63.605  1.00  0.00     0.085 C 
BRANCH   6   7
HETATM    7  C1  UNK   900      12.250 -80.376 -63.303  1.00  0.00    -0.016 C 
HETATM    8  C6  UNK   900      12.485 -81.177 -64.584  1.00  0.00     0.010 C 
HETATM    9  C7  UNK   900      13.282 -80.773 -62.245  1.00  0.00     0.010 C 
ENDBRANCH   6   7
ENDBRANCH   4   6
ENDBRANCH   1   4
BRANCH   1  10
HETATM   10  C5  UNK   900       8.550 -78.896 -63.614  1.00  0.00     0.078 C 
BRANCH  10  11
HETATM   11  C8  UNK   900       7.931 -80.220 -63.992  1.00  0.00    -0.055 A 
HETATM   12  C9  UNK   900       8.726 -81.236 -64.521  1.00  0.00     0.007 A 
HETATM   13  C11 UNK   900       8.154 -82.460 -64.869  1.00  0.00     0.001 A 
HETATM   14  C13 UNK   900       6.786 -82.667 -64.689  1.00  0.00     0.000 A 
HETATM   15  C12 UNK   900       5.990 -81.650 -64.159  1.00  0.00     0.001 A 
HETATM   16  C10 UNK   900       6.563 -80.427 -63.811  1.00  0.00     0.007 A 
ENDBRANCH  10  11
ENDBRANCH   1  10
TORSDOF 6
ENDMDL
MODEL 7
REMARK VINA RESULT:      -3.8     24.807     27.075
REMARK  6 active torsions:
REMARK  status: ('A' for Active; 'I' for Inactive)
REMARK    1  A    between atoms: O1_1  and  C3_5 
REMARK    2  A    between atoms: C1_3  and  C2_4 
REMARK    3  A    between atoms: C2_4  and  C4_6 
REMARK    4  A    between atoms: C3_5  and  C4_6 
REMARK    5  A    between atoms: C3_5  and  C5_7 
REMARK    6  A    between atoms: C5_7  and  C8_10 
ROOT
HETATM    1  C3  UNK   900      23.941 -40.027 -95.920  1.00  0.00     0.191 C 
ENDROOT
BRANCH   1   2
HETATM    2  O1  UNK   900      22.708 -40.183 -96.610  1.00  0.00    -0.388 OA
HETATM    3  H15 UNK   900      22.877 -40.060 -97.560  1.00  0.00     0.210 HD
ENDBRANCH   1   2
BRANCH   1   4
HETATM    4  C4  UNK   900      24.830 -41.218 -96.265  1.00  0.00     0.155 C 
HETATM    5  O2  UNK   900      25.177 -41.449 -97.424  1.00  0.00    -0.295 OA
BRANCH   4   6
HETATM    6  C2  UNK   900      25.285 -42.090 -95.101  1.00  0.00     0.085 C 
BRANCH   6   7
HETATM    7  C1  UNK   900      26.697 -41.751 -94.601  1.00  0.00    -0.016 C 
HETATM    8  C6  UNK   900      26.675 -41.514 -93.090  1.00  0.00     0.010 C 
HETATM    9  C7  UNK   900      27.691 -42.865 -94.938  1.00  0.00     0.010 C 
ENDBRANCH   6   7
ENDBRANCH   4   6
ENDBRANCH   1   4
BRANCH   1  10
HETATM   10  C5  UNK   900      24.601 -38.703 -96.312  1.00  0.00     0.078 C 
BRANCH  10  11
HETATM   11  C8  UNK   900      25.767 -38.363 -95.416  1.00  0.00    -0.055 A 
HETATM   12  C9  UNK   900      27.059 -38.321 -95.939  1.00  0.00     0.007 A 
HETATM   13  C11 UNK   900      28.137 -38.006 -95.111  1.00  0.00     0.001 A 
HETATM   14  C13 UNK   900      27.922 -37.733 -93.760  1.00  0.00     0.000 A 
HETATM   15  C12 UNK   900      26.629 -37.775 -93.237  1.00  0.00     0.001 A 
HETATM   16  C10 UNK   900      25.551 -38.090 -94.065  1.00  0.00     0.007 A 
ENDBRANCH  10  11
ENDBRANCH   1  10
TORSDOF 6
ENDMDL
MODEL 8
REMARK VINA RESULT:      -3.7     58.408     60.494
REMARK  6 active torsions:
REMARK  status: ('A' for Active; 'I' for Inactive)
REMARK    1  A    between atoms: O1_1  and  C3_5 
REMARK    2  A    between atoms: C1_3  and  C2_4 
REMARK    3  A    between atoms: C2_4  and  C4_6 
REMARK    4  A    between atoms: C3_5  and  C4_6 
REMARK    5  A    between atoms: C3_5  and  C5_7 
REMARK    6  A    between atoms: C5_7  and  C8_10 
ROOT
HETATM    1  C3  UNK   900       9.333 -78.590 -65.287  1.00  0.00     0.191 C 
ENDROOT
BRANCH   1   2
HETATM    2  O1  UNK   900       9.838 -79.469 -66.283  1.00  0.00    -0.388 OA
HETATM    3  H15 UNK   900       9.273 -79.389 -67.070  1.00  0.00     0.210 HD
ENDBRANCH   1   2
BRANCH   1   4
HETATM    4  C4  UNK   900       8.037 -77.978 -65.808  1.00  0.00     0.155 C 
HETATM    5  O2  UNK   900       7.441 -77.099 -65.183  1.00  0.00    -0.295 OA
BRANCH   4   6
HETATM    6  C2  UNK   900       7.531 -78.491 -67.151  1.00  0.00     0.085 C 
BRANCH   6   7
HETATM    7  C1  UNK   900       6.150 -79.158 -67.066  1.00  0.00    -0.016 C 
HETATM    8  C6  UNK   900       5.108 -78.299 -67.783  1.00  0.00     0.010 C 
HETATM    9  C7  UNK   900       6.171 -80.563 -67.672  1.00  0.00     0.010 C 
ENDBRANCH   6   7
ENDBRANCH   4   6
ENDBRANCH   1   4
BRANCH   1  10
HETATM   10  C5  UNK   900       9.105 -79.352 -63.979  1.00  0.00     0.078 C 
BRANCH  10  11
HETATM   11  C8  UNK   900       8.068 -80.438 -64.128  1.00  0.00    -0.055 A 
HETATM   12  C9  UNK   900       6.755 -80.210 -63.716  1.00  0.00     0.007 A 
HETATM   13  C11 UNK   900       5.796 -81.214 -63.855  1.00  0.00     0.001 A 
HETATM   14  C13 UNK   900       6.150 -82.447 -64.405  1.00  0.00     0.000 A 
HETATM   15  C12 UNK   900       7.464 -82.674 -64.818  1.00  0.00     0.001 A 
HETATM   16  C10 UNK   900       8.423 -81.670 -64.679  1.00  0.00     0.007 A 
ENDBRANCH  10  11
ENDBRANCH   1  10
TORSDOF 6
ENDMDL
MODEL 9
REMARK VINA RESULT:      -3.7      2.766      3.730
REMARK  6 active torsions:
REMARK  status: ('A' for Active; 'I' for Inactive)
REMARK    1  A    between atoms: O1_1  and  C3_5 
REMARK    2  A    between atoms: C1_3  and  C2_4 
REMARK    3  A    between atoms: C2_4  and  C4_6 
REMARK    4  A    between atoms: C3_5  and  C4_6 
REMARK    5  A    between atoms: C3_5  and  C5_7 
REMARK    6  A    between atoms: C5_7  and  C8_10 
ROOT
HETATM    1  C3  UNK   900      23.452 -20.687 -74.913  1.00  0.00     0.191 C 
ENDROOT
BRANCH   1   2
HETATM    2  O1  UNK   900      22.521 -19.630 -75.097  1.00  0.00    -0.388 OA
HETATM    3  H15 UNK   900      22.863 -18.843 -74.640  1.00  0.00     0.210 HD
ENDBRANCH   1   2
BRANCH   1   4
HETATM    4  C4  UNK   900      22.774 -21.992 -75.316  1.00  0.00     0.155 C 
HETATM    5  O2  UNK   900      21.704 -22.345 -74.817  1.00  0.00    -0.295 OA
BRANCH   4   6
HETATM    6  C2  UNK   900      23.474 -22.824 -76.383  1.00  0.00     0.085 C 
BRANCH   6   7
HETATM    7  C1  UNK   900      23.928 -24.203 -75.880  1.00  0.00    -0.016 C 
HETATM    8  C6  UNK   900      23.031 -25.295 -76.464  1.00  0.00     0.010 C 
HETATM    9  C7  UNK   900      25.388 -24.478 -76.248  1.00  0.00     0.010 C 
ENDBRANCH   6   7
ENDBRANCH   4   6
ENDBRANCH   1   4
BRANCH   1  10
HETATM   10  C5  UNK   900      24.712 -20.430 -75.744  1.00  0.00     0.078 C 
BRANCH  10  11
HETATM   11  C8  UNK   900      25.964 -20.458 -74.901  1.00  0.00    -0.055 A 
HETATM   12  C9  UNK   900      26.347 -21.637 -74.261  1.00  0.00     0.007 A 
HETATM   13  C11 UNK   900      27.505 -21.663 -73.483  1.00  0.00     0.001 A 
HETATM   14  C13 UNK   900      28.278 -20.510 -73.344  1.00  0.00     0.000 A 
HETATM   15  C12 UNK   900      27.895 -19.331 -73.985  1.00  0.00     0.001 A 
HETATM   16  C10 UNK   900      26.738 -19.306 -74.764  1.00  0.00     0.007 A 
ENDBRANCH  10  11
ENDBRANCH   1  10
TORSDOF 6
ENDMDL
