MODEL 1
REMARK VINA RESULT:      -5.7      0.000      0.000
REMARK  3 active torsions:
REMARK  status: ('A' for Active; 'I' for Inactive)
REMARK    1  A    between atoms: O2_2  and  C2_6 
REMARK    2  A    between atoms: C4_8  and  C6_10 
REMARK    3  A    between atoms: C6_10  and  C8_12 
ROOT
HETATM    1  O1  UNK   900      31.766 -50.814 -61.859  1.00  0.00    -0.310 OA
HETATM    2  O3  UNK   900      31.601 -50.007 -63.961  1.00  0.00    -0.260 OA
HETATM    3  C1  UNK   900      31.606 -50.528 -60.453  1.00  0.00     0.160 C 
HETATM    4  C2  UNK   900      30.148 -50.213 -60.140  1.00  0.00     0.170 C 
HETATM    5  C3  UNK   900      29.663 -49.181 -61.103  1.00  0.00     0.021 C 
HETATM    6  C4  UNK   900      30.192 -49.030 -62.326  1.00  0.00     0.023 C 
HETATM    7  C5  UNK   900      32.113 -51.743 -59.682  1.00  0.00     0.043 C 
HETATM    8  C7  UNK   900      31.245 -49.970 -62.788  1.00  0.00     0.290 C 
ENDROOT
BRANCH   6   9
HETATM    9  C6  UNK   900      29.716 -47.996 -63.298  1.00  0.00     0.122 C 
BRANCH   9  10
HETATM   10  C8  UNK   900      30.165 -46.607 -62.888  1.00  0.00     0.127 C 
HETATM   11  O4  UNK   900      29.575 -45.916 -62.058  1.00  0.00    -0.298 OA
HETATM   12  C9  UNK   900      31.421 -46.106 -63.556  1.00  0.00     0.091 C 
ENDBRANCH   9  10
ENDBRANCH   6   9
BRANCH   4  13
HETATM   13  O2  UNK   900      30.037 -49.692 -58.821  1.00  0.00    -0.389 OA
HETATM   14  H9  UNK   900      29.139 -49.885 -58.501  1.00  0.00     0.210 HD
ENDBRANCH   4  13
TORSDOF 3
ENDMDL
MODEL 2
REMARK VINA RESULT:      -5.3      1.670      1.895
REMARK  3 active torsions:
REMARK  status: ('A' for Active; 'I' for Inactive)
REMARK    1  A    between atoms: O2_2  and  C2_6 
REMARK    2  A    between atoms: C4_8  and  C6_10 
REMARK    3  A    between atoms: C6_10  and  C8_12 
ROOT
HETATM    1  O1  UNK   900      32.997 -50.306 -62.177  1.00  0.00    -0.310 OA
HETATM    2  O3  UNK   900      31.475 -50.243 -63.844  1.00  0.00    -0.260 OA
HETATM    3  C1  UNK   900      33.443 -49.705 -60.943  1.00  0.00     0.160 C 
HETATM    4  C2  UNK   900      32.369 -49.841 -59.871  1.00  0.00     0.170 C 
HETATM    5  C3  UNK   900      31.070 -49.364 -60.428  1.00  0.00     0.021 C 
HETATM    6  C4  UNK   900      30.794 -49.394 -61.740  1.00  0.00     0.023 C 
HETATM    7  C5  UNK   900      34.746 -50.393 -60.547  1.00  0.00     0.043 C 
HETATM    8  C7  UNK   900      31.772 -49.999 -62.679  1.00  0.00     0.290 C 
ENDROOT
BRANCH   6   9
HETATM    9  C6  UNK   900      29.496 -48.913 -62.311  1.00  0.00     0.122 C 
BRANCH   9  10
HETATM   10  C8  UNK   900      29.678 -47.620 -63.081  1.00  0.00     0.127 C 
HETATM   11  O4  UNK   900      29.559 -47.531 -64.302  1.00  0.00    -0.298 OA
HETATM   12  C9  UNK   900      30.004 -46.407 -62.247  1.00  0.00     0.091 C 
ENDBRANCH   9  10
ENDBRANCH   6   9
BRANCH   4  13
HETATM   13  O2  UNK   900      32.704 -49.038 -58.744  1.00  0.00    -0.389 OA
HETATM   14  H9  UNK   900      33.161 -48.245 -59.071  1.00  0.00     0.210 HD
ENDBRANCH   4  13
TORSDOF 3
ENDMDL
MODEL 3
REMARK VINA RESULT:      -5.0     12.745     14.169
REMARK  3 active torsions:
REMARK  status: ('A' for Active; 'I' for Inactive)
REMARK    1  A    between atoms: O2_2  and  C2_6 
REMARK    2  A    between atoms: C4_8  and  C6_10 
REMARK    3  A    between atoms: C6_10  and  C8_12 
ROOT
HETATM    1  O1  UNK   900      34.413 -37.626 -56.633  1.00  0.00    -0.310 OA
HETATM    2  O3  UNK   900      36.072 -36.626 -57.795  1.00  0.00    -0.260 OA
HETATM    3  C1  UNK   900      33.071 -37.500 -56.118  1.00  0.00     0.160 C 
HETATM    4  C2  UNK   900      32.078 -37.344 -57.262  1.00  0.00     0.170 C 
HETATM    5  C3  UNK   900      32.560 -36.265 -58.174  1.00  0.00     0.021 C 
HETATM    6  C4  UNK   900      33.857 -35.945 -58.289  1.00  0.00     0.023 C 
HETATM    7  C5  UNK   900      32.791 -38.739 -55.273  1.00  0.00     0.043 C 
HETATM    8  C7  UNK   900      34.874 -36.739 -57.555  1.00  0.00     0.290 C 
ENDROOT
BRANCH   6   9
HETATM    9  C6  UNK   900      34.351 -34.861 -59.196  1.00  0.00     0.122 C 
BRANCH   9  10
HETATM   10  C8  UNK   900      34.618 -33.581 -58.430  1.00  0.00     0.127 C 
HETATM   11  O4  UNK   900      33.774 -33.009 -57.741  1.00  0.00    -0.298 OA
HETATM   12  C9  UNK   900      36.019 -33.036 -58.542  1.00  0.00     0.091 C 
ENDBRANCH   9  10
ENDBRANCH   6   9
BRANCH   4  13
HETATM   13  O2  UNK   900      30.803 -36.972 -56.751  1.00  0.00    -0.389 OA
HETATM   14  H9  UNK   900      30.190 -36.908 -57.503  1.00  0.00     0.210 HD
ENDBRANCH   4  13
TORSDOF 3
ENDMDL
MODEL 4
REMARK VINA RESULT:      -4.9     13.303     15.763
REMARK  3 active torsions:
REMARK  status: ('A' for Active; 'I' for Inactive)
REMARK    1  A    between atoms: O2_2  and  C2_6 
REMARK    2  A    between atoms: C4_8  and  C6_10 
REMARK    3  A    between atoms: C6_10  and  C8_12 
ROOT
HETATM    1  O1  UNK   900      33.522 -33.776 -58.395  1.00  0.00    -0.310 OA
HETATM    2  O3  UNK   900      32.371 -35.714 -58.269  1.00  0.00    -0.260 OA
HETATM    3  C1  UNK   900      34.666 -33.032 -57.924  1.00  0.00     0.160 C 
HETATM    4  C2  UNK   900      35.956 -33.741 -58.317  1.00  0.00     0.170 C 
HETATM    5  C3  UNK   900      35.862 -35.173 -57.908  1.00  0.00     0.021 C 
HETATM    6  C4  UNK   900      34.689 -35.813 -57.789  1.00  0.00     0.023 C 
HETATM    7  C5  UNK   900      34.573 -31.630 -58.517  1.00  0.00     0.043 C 
HETATM    8  C7  UNK   900      33.433 -35.111 -58.155  1.00  0.00     0.290 C 
ENDROOT
BRANCH   6   9
HETATM    9  C6  UNK   900      34.582 -37.248 -57.376  1.00  0.00     0.122 C 
BRANCH   9  10
HETATM   10  C8  UNK   900      34.241 -37.373 -55.905  1.00  0.00     0.127 C 
HETATM   11  O4  UNK   900      34.851 -36.788 -55.010  1.00  0.00    -0.298 OA
HETATM   12  C9  UNK   900      33.067 -38.263 -55.583  1.00  0.00     0.091 C 
ENDBRANCH   9  10
ENDBRANCH   6   9
BRANCH   4  13
HETATM   13  O2  UNK   900      37.060 -33.148 -57.643  1.00  0.00    -0.389 OA
HETATM   14  H9  UNK   900      37.652 -33.864 -57.356  1.00  0.00     0.210 HD
ENDBRANCH   4  13
TORSDOF 3
ENDMDL
MODEL 5
REMARK VINA RESULT:      -4.9     30.196     31.920
REMARK  3 active torsions:
REMARK  status: ('A' for Active; 'I' for Inactive)
REMARK    1  A    between atoms: O2_2  and  C2_6 
REMARK    2  A    between atoms: C4_8  and  C6_10 
REMARK    3  A    between atoms: C6_10  and  C8_12 
ROOT
HETATM    1  O1  UNK   900       7.583 -66.173 -49.144  1.00  0.00    -0.310 OA
HETATM    2  O3  UNK   900       5.380 -66.188 -48.648  1.00  0.00    -0.260 OA
HETATM    3  C1  UNK   900       8.616 -66.686 -50.012  1.00  0.00     0.160 C 
HETATM    4  C2  UNK   900       8.363 -66.250 -51.450  1.00  0.00     0.170 C 
HETATM    5  C3  UNK   900       6.951 -66.575 -51.809  1.00  0.00     0.021 C 
HETATM    6  C4  UNK   900       5.975 -66.658 -50.893  1.00  0.00     0.023 C 
HETATM    7  C5  UNK   900       9.951 -66.175 -49.480  1.00  0.00     0.043 C 
HETATM    8  C7  UNK   900       6.274 -66.336 -49.475  1.00  0.00     0.290 C 
ENDROOT
BRANCH   6   9
HETATM    9  C6  UNK   900       4.557 -66.987 -51.241  1.00  0.00     0.122 C 
BRANCH   9  10
HETATM   10  C8  UNK   900       3.799 -65.752 -51.687  1.00  0.00     0.127 C 
HETATM   11  O4  UNK   900       4.184 -65.002 -52.583  1.00  0.00    -0.298 OA
HETATM   12  C9  UNK   900       2.498 -65.492 -50.970  1.00  0.00     0.091 C 
ENDBRANCH   9  10
ENDBRANCH   6   9
BRANCH   4  13
HETATM   13  O2  UNK   900       9.229 -66.956 -52.331  1.00  0.00    -0.389 OA
HETATM   14  H9  UNK   900       9.890 -66.326 -52.664  1.00  0.00     0.210 HD
ENDBRANCH   4  13
TORSDOF 3
ENDMDL
MODEL 6
REMARK VINA RESULT:      -4.8     28.914     29.705
REMARK  3 active torsions:
REMARK  status: ('A' for Active; 'I' for Inactive)
REMARK    1  A    between atoms: O2_2  and  C2_6 
REMARK    2  A    between atoms: C4_8  and  C6_10 
REMARK    3  A    between atoms: C6_10  and  C8_12 
ROOT
HETATM    1  O1  UNK   900      25.155 -24.201 -76.551  1.00  0.00    -0.310 OA
HETATM    2  O3  UNK   900      27.275 -23.424 -76.569  1.00  0.00    -0.260 OA
HETATM    3  C1  UNK   900      24.077 -24.712 -75.739  1.00  0.00     0.160 C 
HETATM    4  C2  UNK   900      23.623 -23.657 -74.737  1.00  0.00     0.170 C 
HETATM    5  C3  UNK   900      24.821 -23.127 -74.021  1.00  0.00     0.021 C 
HETATM    6  C4  UNK   900      26.047 -23.133 -74.565  1.00  0.00     0.023 C 
HETATM    7  C5  UNK   900      22.956 -25.131 -76.684  1.00  0.00     0.043 C 
HETATM    8  C7  UNK   900      26.224 -23.602 -75.963  1.00  0.00     0.290 C 
ENDROOT
BRANCH   6   9
HETATM    9  C6  UNK   900      27.256 -22.609 -73.854  1.00  0.00     0.122 C 
BRANCH   9  10
HETATM   10  C8  UNK   900      27.098 -21.141 -73.510  1.00  0.00     0.127 C 
HETATM   11  O4  UNK   900      26.972 -20.719 -72.361  1.00  0.00    -0.298 OA
HETATM   12  C9  UNK   900      27.125 -20.192 -74.681  1.00  0.00     0.091 C 
ENDBRANCH   9  10
ENDBRANCH   6   9
BRANCH   4  13
HETATM   13  O2  UNK   900      22.744 -24.240 -73.783  1.00  0.00    -0.389 OA
HETATM   14  H9  UNK   900      22.544 -25.145 -74.078  1.00  0.00     0.210 HD
ENDBRANCH   4  13
TORSDOF 3
ENDMDL
MODEL 7
REMARK VINA RESULT:      -4.7     28.896     30.138
REMARK  3 active torsions:
REMARK  status: ('A' for Active; 'I' for Inactive)
REMARK    1  A    between atoms: O2_2  and  C2_6 
REMARK    2  A    between atoms: C4_8  and  C6_10 
REMARK    3  A    between atoms: C6_10  and  C8_12 
ROOT
HETATM    1  O1  UNK   900      22.635 -23.470 -75.425  1.00  0.00    -0.310 OA
HETATM    2  O3  UNK   900      22.202 -21.599 -74.236  1.00  0.00    -0.260 OA
HETATM    3  C1  UNK   900      23.580 -24.153 -76.276  1.00  0.00     0.160 C 
HETATM    4  C2  UNK   900      24.876 -24.418 -75.521  1.00  0.00     0.170 C 
HETATM    5  C3  UNK   900      25.331 -23.147 -74.885  1.00  0.00     0.021 C 
HETATM    6  C4  UNK   900      24.481 -22.167 -74.546  1.00  0.00     0.023 C 
HETATM    7  C5  UNK   900      22.914 -25.440 -76.752  1.00  0.00     0.043 C 
HETATM    8  C7  UNK   900      23.021 -22.370 -74.726  1.00  0.00     0.290 C 
ENDROOT
BRANCH   6   9
HETATM    9  C6  UNK   900      24.926 -20.886 -73.911  1.00  0.00     0.122 C 
BRANCH   9  10
HETATM   10  C8  UNK   900      25.565 -21.134 -72.559  1.00  0.00     0.127 C 
HETATM   11  O4  UNK   900      26.742 -20.882 -72.303  1.00  0.00    -0.298 OA
HETATM   12  C9  UNK   900      24.653 -21.707 -71.504  1.00  0.00     0.091 C 
ENDBRANCH   9  10
ENDBRANCH   6   9
BRANCH   4  13
HETATM   13  O2  UNK   900      25.883 -24.859 -76.425  1.00  0.00    -0.389 OA
HETATM   14  H9  UNK   900      26.738 -24.532 -76.099  1.00  0.00     0.210 HD
ENDBRANCH   4  13
TORSDOF 3
ENDMDL
MODEL 8
REMARK VINA RESULT:      -4.6     29.090     30.367
REMARK  3 active torsions:
REMARK  status: ('A' for Active; 'I' for Inactive)
REMARK    1  A    between atoms: O2_2  and  C2_6 
REMARK    2  A    between atoms: C4_8  and  C6_10 
REMARK    3  A    between atoms: C6_10  and  C8_12 
ROOT
HETATM    1  O1  UNK   900      22.564 -20.655 -72.588  1.00  0.00    -0.310 OA
HETATM    2  O3  UNK   900      22.271 -21.473 -74.672  1.00  0.00    -0.260 OA
HETATM    3  C1  UNK   900      23.003 -20.941 -71.243  1.00  0.00     0.160 C 
HETATM    4  C2  UNK   900      24.485 -21.296 -71.235  1.00  0.00     0.170 C 
HETATM    5  C3  UNK   900      24.734 -22.344 -72.268  1.00  0.00     0.021 C 
HETATM    6  C4  UNK   900      23.960 -22.484 -73.354  1.00  0.00     0.023 C 
HETATM    7  C5  UNK   900      22.699 -19.710 -70.394  1.00  0.00     0.043 C 
HETATM    8  C7  UNK   900      22.860 -21.516 -73.597  1.00  0.00     0.290 C 
ENDROOT
BRANCH   6   9
HETATM    9  C6  UNK   900      24.197 -23.534 -74.394  1.00  0.00     0.122 C 
BRANCH   9  10
HETATM   10  C8  UNK   900      25.299 -23.122 -75.350  1.00  0.00     0.127 C 
HETATM   11  O4  UNK   900      25.568 -21.951 -75.618  1.00  0.00    -0.298 OA
HETATM   12  C9  UNK   900      26.087 -24.253 -75.960  1.00  0.00     0.091 C 
ENDBRANCH   9  10
ENDBRANCH   6   9
BRANCH   4  13
HETATM   13  O2  UNK   900      24.852 -21.815 -69.962  1.00  0.00    -0.389 OA
HETATM   14  H9  UNK   900      25.180 -21.075 -69.423  1.00  0.00     0.210 HD
ENDBRANCH   4  13
TORSDOF 3
ENDMDL
MODEL 9
REMARK VINA RESULT:      -4.5     30.059     31.961
REMARK  3 active torsions:
REMARK  status: ('A' for Active; 'I' for Inactive)
REMARK    1  A    between atoms: O2_2  and  C2_6 
REMARK    2  A    between atoms: C4_8  and  C6_10 
REMARK    3  A    between atoms: C6_10  and  C8_12 
ROOT
HETATM    1  O1  UNK   900       6.130 -67.818 -51.002  1.00  0.00    -0.310 OA
HETATM    2  O3  UNK   900       6.498 -69.928 -50.287  1.00  0.00    -0.260 OA
HETATM    3  C1  UNK   900       6.653 -66.475 -51.083  1.00  0.00     0.160 C 
HETATM    4  C2  UNK   900       7.932 -66.455 -51.909  1.00  0.00     0.170 C 
HETATM    5  C3  UNK   900       8.853 -67.513 -51.396  1.00  0.00     0.021 C 
HETATM    6  C4  UNK   900       8.408 -68.613 -50.771  1.00  0.00     0.023 C 
HETATM    7  C5  UNK   900       5.560 -65.599 -51.687  1.00  0.00     0.043 C 
HETATM    8  C7  UNK   900       6.947 -68.846 -50.651  1.00  0.00     0.290 C 
ENDROOT
BRANCH   6   9
HETATM    9  C6  UNK   900       9.322 -69.678 -50.249  1.00  0.00     0.122 C 
BRANCH   9  10
HETATM   10  C8  UNK   900       9.696 -69.422 -48.802  1.00  0.00     0.127 C 
HETATM   11  O4  UNK   900       8.891 -69.063 -47.943  1.00  0.00    -0.298 OA
HETATM   12  C9  UNK   900      11.144 -69.654 -48.453  1.00  0.00     0.091 C 
ENDBRANCH   9  10
ENDBRANCH   6   9
BRANCH   4  13
HETATM   13  O2  UNK   900       8.574 -65.192 -51.779  1.00  0.00    -0.389 OA
HETATM   14  H9  UNK   900       9.471 -65.276 -52.145  1.00  0.00     0.210 HD
ENDBRANCH   4  13
TORSDOF 3
ENDMDL
