MODEL 1
REMARK VINA RESULT:      -7.1      0.000      0.000
REMARK  8 active torsions:
REMARK  status: ('A' for Active; 'I' for Inactive)
REMARK    1  A    between atoms: O2_2  and  C3_12 
REMARK    2  A    between atoms: O3_3  and  C5_14 
REMARK    3  A    between atoms: O3_3  and  C7_16 
REMARK    4  A    between atoms: O4_4  and  C1_10 
REMARK    5  A    between atoms: O5_5  and  C2_11 
REMARK    6  A    between atoms: O6_6  and  C9_18 
REMARK    7  A    between atoms: O9_9  and  C23_32 
REMARK    8  A    between atoms: C15_24  and  C17_26 
ROOT
HETATM    1  O7  UNK   900      36.944 -33.714 -60.475  1.00  0.00    -0.321 OA
HETATM    2  O8  UNK   900      34.669 -32.398 -57.354  1.00  0.00    -0.286 OA
HETATM    3  C7  UNK   900      36.854 -30.162 -61.276  1.00  0.00     0.108 A 
HETATM    4  C9  UNK   900      36.072 -29.656 -60.238  1.00  0.00     0.102 A 
HETATM    5  C10 UNK   900      37.136 -31.525 -61.339  1.00  0.00     0.078 A 
HETATM    6  C11 UNK   900      36.634 -32.384 -60.361  1.00  0.00     0.092 A 
HETATM    7  C12 UNK   900      35.852 -31.879 -59.323  1.00  0.00     0.052 A 
HETATM    8  C13 UNK   900      35.568 -30.512 -59.257  1.00  0.00     0.058 A 
HETATM    9  C14 UNK   900      35.335 -32.804 -58.298  1.00  0.00     0.198 A 
HETATM   10  C15 UNK   900      35.679 -34.243 -58.470  1.00  0.00     0.048 A 
HETATM   11  C16 UNK   900      36.439 -34.570 -59.526  1.00  0.00     0.159 A 
ENDROOT
BRANCH   3  12
HETATM   12  O3  UNK   900      37.351 -29.326 -62.242  1.00  0.00    -0.315 OA
BRANCH  12  13
HETATM   13  C5  UNK   900      38.769 -29.227 -62.333  1.00  0.00     0.298 C 
HETATM   14  O1  UNK   900      39.249 -27.923 -61.991  1.00  0.00    -0.351 OA
HETATM   15  C4  UNK   900      38.816 -26.886 -62.878  1.00  0.00     0.152 C 
HETATM   16  C2  UNK   900      39.278 -27.163 -64.315  1.00  0.00     0.178 C 
HETATM   17  C6  UNK   900      39.379 -25.574 -62.339  1.00  0.00     0.042 C 
HETATM   18  C1  UNK   900      38.814 -28.551 -64.759  1.00  0.00     0.183 C 
HETATM   19  C3  UNK   900      39.222 -29.616 -63.739  1.00  0.00     0.207 C 
BRANCH  16  20
HETATM   20  O5  UNK   900      38.718 -26.202 -65.207  1.00  0.00    -0.390 OA
HETATM   21  H10 UNK   900      39.295 -25.419 -65.208  1.00  0.00     0.210 HD
ENDBRANCH  16  20
BRANCH  18  22
HETATM   22  O4  UNK   900      39.385 -28.853 -66.030  1.00  0.00    -0.390 OA
HETATM   23  H9  UNK   900      40.282 -29.194 -65.875  1.00  0.00     0.210 HD
ENDBRANCH  18  22
BRANCH  19  24
HETATM   24  O2  UNK   900      40.644 -29.749 -63.717  1.00  0.00    -0.383 OA
HETATM   25  C8  UNK   900      41.031 -31.062 -63.346  1.00  0.00     0.202 C 
ENDBRANCH  19  24
ENDBRANCH  12  13
ENDBRANCH   3  12
BRANCH   4  26
HETATM   26  O6  UNK   900      35.792 -28.324 -60.168  1.00  0.00    -0.353 OA
HETATM   27  C18 UNK   900      36.595 -27.538 -59.290  1.00  0.00     0.210 C 
ENDBRANCH   4  26
BRANCH  10  28
HETATM   28  C17 UNK   900      35.194 -35.276 -57.541  1.00  0.00    -0.020 A 
HETATM   29  C19 UNK   900      33.945 -35.863 -57.741  1.00  0.00     0.015 A 
HETATM   30  C21 UNK   900      33.484 -36.842 -56.859  1.00  0.00     0.037 A 
HETATM   31  C23 UNK   900      34.274 -37.232 -55.777  1.00  0.00     0.065 A 
HETATM   32  C22 UNK   900      35.523 -36.645 -55.578  1.00  0.00     0.037 A 
HETATM   33  C20 UNK   900      35.983 -35.667 -56.460  1.00  0.00     0.015 A 
BRANCH  31  34
HETATM   34  O9  UNK   900      33.824 -38.186 -54.916  1.00  0.00    -0.361 OA
HETATM   35  H24 UNK   900      34.571 -38.504 -54.381  1.00  0.00     0.217 HD
ENDBRANCH  31  34
ENDBRANCH  10  28
TORSDOF 8
ENDMDL
MODEL 2
REMARK VINA RESULT:      -7.1     38.516     41.865
REMARK  8 active torsions:
REMARK  status: ('A' for Active; 'I' for Inactive)
REMARK    1  A    between atoms: O2_2  and  C3_12 
REMARK    2  A    between atoms: O3_3  and  C5_14 
REMARK    3  A    between atoms: O3_3  and  C7_16 
REMARK    4  A    between atoms: O4_4  and  C1_10 
REMARK    5  A    between atoms: O5_5  and  C2_11 
REMARK    6  A    between atoms: O6_6  and  C9_18 
REMARK    7  A    between atoms: O9_9  and  C23_32 
REMARK    8  A    between atoms: C15_24  and  C17_26 
ROOT
HETATM    1  O7  UNK   900       7.278 -54.897 -80.825  1.00  0.00    -0.321 OA
HETATM    2  O8  UNK   900       6.534 -51.545 -78.620  1.00  0.00    -0.286 OA
HETATM    3  C7  UNK   900      10.180 -54.990 -78.625  1.00  0.00     0.108 A 
HETATM    4  C9  UNK   900       9.983 -53.848 -77.847  1.00  0.00     0.102 A 
HETATM    5  C10 UNK   900       9.262 -55.325 -79.619  1.00  0.00     0.078 A 
HETATM    6  C11 UNK   900       8.145 -54.516 -79.834  1.00  0.00     0.092 A 
HETATM    7  C12 UNK   900       7.948 -53.376 -79.057  1.00  0.00     0.052 A 
HETATM    8  C13 UNK   900       8.867 -53.038 -78.059  1.00  0.00     0.058 A 
HETATM    9  C14 UNK   900       6.759 -52.539 -79.299  1.00  0.00     0.198 A 
HETATM   10  C15 UNK   900       5.854 -52.976 -80.398  1.00  0.00     0.048 A 
HETATM   11  C16 UNK   900       6.185 -54.097 -81.056  1.00  0.00     0.159 A 
ENDROOT
BRANCH   3  12
HETATM   12  O3  UNK   900      11.274 -55.789 -78.420  1.00  0.00    -0.315 OA
BRANCH  12  13
HETATM   13  C5  UNK   900      11.202 -57.114 -78.938  1.00  0.00     0.298 C 
HETATM   14  O1  UNK   900      11.785 -58.077 -78.054  1.00  0.00    -0.351 OA
HETATM   15  C4  UNK   900      13.191 -57.909 -77.847  1.00  0.00     0.152 C 
HETATM   16  C2  UNK   900      13.959 -58.007 -79.173  1.00  0.00     0.178 C 
HETATM   17  C6  UNK   900      13.628 -58.984 -76.855  1.00  0.00     0.042 C 
HETATM   18  C1  UNK   900      13.388 -57.012 -80.185  1.00  0.00     0.183 C 
HETATM   19  C3  UNK   900      11.871 -57.167 -80.310  1.00  0.00     0.207 C 
BRANCH  16  20
HETATM   20  O5  UNK   900      15.335 -57.694 -78.971  1.00  0.00    -0.390 OA
HETATM   21  H10 UNK   900      15.411 -56.732 -78.851  1.00  0.00     0.210 HD
ENDBRANCH  16  20
BRANCH  18  22
HETATM   22  O4  UNK   900      14.004 -57.226 -81.453  1.00  0.00    -0.390 OA
HETATM   23  H9  UNK   900      14.472 -56.408 -81.692  1.00  0.00     0.210 HD
ENDBRANCH  18  22
BRANCH  19  24
HETATM   24  O2  UNK   900      11.559 -58.431 -80.897  1.00  0.00    -0.383 OA
HETATM   25  C8  UNK   900      10.218 -58.467 -81.358  1.00  0.00     0.202 C 
ENDBRANCH  19  24
ENDBRANCH  12  13
ENDBRANCH   3  12
BRANCH   4  26
HETATM   26  O6  UNK   900      10.875 -53.514 -76.872  1.00  0.00    -0.353 OA
HETATM   27  C18 UNK   900      10.359 -53.329 -75.557  1.00  0.00     0.210 C 
ENDBRANCH   4  26
BRANCH  10  28
HETATM   28  C17 UNK   900       4.654 -52.210 -80.769  1.00  0.00    -0.020 A 
HETATM   29  C19 UNK   900       3.553 -52.180 -79.914  1.00  0.00     0.015 A 
HETATM   30  C21 UNK   900       2.414 -51.455 -80.266  1.00  0.00     0.037 A 
HETATM   31  C23 UNK   900       2.377 -50.759 -81.475  1.00  0.00     0.065 A 
HETATM   32  C22 UNK   900       3.478 -50.789 -82.330  1.00  0.00     0.037 A 
HETATM   33  C20 UNK   900       4.617 -51.514 -81.977  1.00  0.00     0.015 A 
BRANCH  31  34
HETATM   34  O9  UNK   900       1.266 -50.053 -81.820  1.00  0.00    -0.361 OA
HETATM   35  H24 UNK   900       1.193 -49.278 -81.237  1.00  0.00     0.217 HD
ENDBRANCH  31  34
ENDBRANCH  10  28
TORSDOF 8
ENDMDL
MODEL 3
REMARK VINA RESULT:      -7.1     37.828     41.458
REMARK  8 active torsions:
REMARK  status: ('A' for Active; 'I' for Inactive)
REMARK    1  A    between atoms: O2_2  and  C3_12 
REMARK    2  A    between atoms: O3_3  and  C5_14 
REMARK    3  A    between atoms: O3_3  and  C7_16 
REMARK    4  A    between atoms: O4_4  and  C1_10 
REMARK    5  A    between atoms: O5_5  and  C2_11 
REMARK    6  A    between atoms: O6_6  and  C9_18 
REMARK    7  A    between atoms: O9_9  and  C23_32 
REMARK    8  A    between atoms: C15_24  and  C17_26 
ROOT
HETATM    1  O7  UNK   900       7.217 -54.631 -80.188  1.00  0.00    -0.321 OA
HETATM    2  O8  UNK   900       6.312 -50.943 -78.694  1.00  0.00    -0.286 OA
HETATM    3  C7  UNK   900       9.841 -54.359 -77.675  1.00  0.00     0.108 A 
HETATM    4  C9  UNK   900       9.586 -53.099 -77.133  1.00  0.00     0.102 A 
HETATM    5  C10 UNK   900       9.036 -54.856 -78.699  1.00  0.00     0.078 A 
HETATM    6  C11 UNK   900       7.974 -54.090 -79.181  1.00  0.00     0.092 A 
HETATM    7  C12 UNK   900       7.718 -52.831 -78.639  1.00  0.00     0.052 A 
HETATM    8  C13 UNK   900       8.524 -52.331 -77.613  1.00  0.00     0.058 A 
HETATM    9  C14 UNK   900       6.588 -52.041 -79.161  1.00  0.00     0.198 A 
HETATM   10  C15 UNK   900       5.805 -52.656 -80.268  1.00  0.00     0.048 A 
HETATM   11  C16 UNK   900       6.180 -53.876 -80.681  1.00  0.00     0.159 A 
ENDROOT
BRANCH   3  12
HETATM   12  O3  UNK   900      10.882 -55.118 -77.208  1.00  0.00    -0.315 OA
BRANCH  12  13
HETATM   13  C5  UNK   900      10.678 -56.527 -77.170  1.00  0.00     0.298 C 
HETATM   14  O1  UNK   900      10.089 -56.960 -75.939  1.00  0.00    -0.351 OA
HETATM   15  C4  UNK   900      10.910 -56.742 -74.787  1.00  0.00     0.152 C 
HETATM   16  C2  UNK   900      12.250 -57.479 -74.917  1.00  0.00     0.178 C 
HETATM   17  C6  UNK   900      10.112 -57.217 -73.575  1.00  0.00     0.042 C 
HETATM   18  C1  UNK   900      12.944 -57.079 -76.220  1.00  0.00     0.183 C 
HETATM   19  C3  UNK   900      12.004 -57.245 -77.415  1.00  0.00     0.207 C 
BRANCH  16  20
HETATM   20  O5  UNK   900      13.110 -57.135 -73.833  1.00  0.00    -0.390 OA
HETATM   21  H10 UNK   900      13.367 -57.955 -73.380  1.00  0.00     0.210 HD
ENDBRANCH  16  20
BRANCH  18  22
HETATM   22  O4  UNK   900      14.106 -57.887 -76.400  1.00  0.00    -0.390 OA
HETATM   23  H9  UNK   900      14.056 -58.618 -75.760  1.00  0.00     0.210 HD
ENDBRANCH  18  22
BRANCH  19  24
HETATM   24  O2  UNK   900      11.717 -58.629 -77.620  1.00  0.00    -0.383 OA
HETATM   25  C8  UNK   900      11.578 -58.927 -79.000  1.00  0.00     0.202 C 
ENDBRANCH  19  24
ENDBRANCH  12  13
ENDBRANCH   3  12
BRANCH   4  26
HETATM   26  O6  UNK   900      10.367 -52.607 -76.132  1.00  0.00    -0.353 OA
HETATM   27  C18 UNK   900       9.824 -52.631 -74.814  1.00  0.00     0.210 C 
ENDBRANCH   4  26
BRANCH  10  28
HETATM   28  C17 UNK   900       4.677 -51.958 -80.906  1.00  0.00    -0.020 A 
HETATM   29  C19 UNK   900       4.806 -51.464 -82.203  1.00  0.00     0.015 A 
HETATM   30  C21 UNK   900       3.738 -50.801 -82.808  1.00  0.00     0.037 A 
HETATM   31  C23 UNK   900       2.540 -50.632 -82.113  1.00  0.00     0.065 A 
HETATM   32  C22 UNK   900       2.411 -51.126 -80.816  1.00  0.00     0.037 A 
HETATM   33  C20 UNK   900       3.479 -51.790 -80.212  1.00  0.00     0.015 A 
BRANCH  31  34
HETATM   34  O9  UNK   900       1.498 -49.983 -82.702  1.00  0.00    -0.361 OA
HETATM   35  H24 UNK   900       0.708 -50.548 -82.652  1.00  0.00     0.217 HD
ENDBRANCH  31  34
ENDBRANCH  10  28
TORSDOF 8
ENDMDL
MODEL 4
REMARK VINA RESULT:      -6.8     14.465     17.069
REMARK  8 active torsions:
REMARK  status: ('A' for Active; 'I' for Inactive)
REMARK    1  A    between atoms: O2_2  and  C3_12 
REMARK    2  A    between atoms: O3_3  and  C5_14 
REMARK    3  A    between atoms: O3_3  and  C7_16 
REMARK    4  A    between atoms: O4_4  and  C1_10 
REMARK    5  A    between atoms: O5_5  and  C2_11 
REMARK    6  A    between atoms: O6_6  and  C9_18 
REMARK    7  A    between atoms: O9_9  and  C23_32 
REMARK    8  A    between atoms: C15_24  and  C17_26 
ROOT
HETATM    1  O7  UNK   900      24.303 -30.901 -49.325  1.00  0.00    -0.321 OA
HETATM    2  O8  UNK   900      20.525 -30.227 -47.938  1.00  0.00    -0.286 OA
HETATM    3  C7  UNK   900      23.527 -27.873 -51.195  1.00  0.00     0.108 A 
HETATM    4  C9  UNK   900      22.228 -27.599 -50.766  1.00  0.00     0.102 A 
HETATM    5  C10 UNK   900      24.207 -28.985 -50.701  1.00  0.00     0.078 A 
HETATM    6  C11 UNK   900      23.586 -29.824 -49.776  1.00  0.00     0.092 A 
HETATM    7  C12 UNK   900      22.288 -29.550 -49.346  1.00  0.00     0.052 A 
HETATM    8  C13 UNK   900      21.604 -28.435 -49.839  1.00  0.00     0.058 A 
HETATM    9  C14 UNK   900      21.653 -30.448 -48.364  1.00  0.00     0.198 A 
HETATM   10  C15 UNK   900      22.459 -31.617 -47.916  1.00  0.00     0.048 A 
HETATM   11  C16 UNK   900      23.693 -31.743 -48.427  1.00  0.00     0.159 A 
ENDROOT
BRANCH   3  12
HETATM   12  O3  UNK   900      24.145 -27.055 -52.105  1.00  0.00    -0.315 OA
BRANCH  12  13
HETATM   13  C5  UNK   900      25.518 -26.760 -51.869  1.00  0.00     0.298 C 
HETATM   14  O1  UNK   900      25.751 -25.361 -51.677  1.00  0.00    -0.351 OA
HETATM   15  C4  UNK   900      25.461 -24.554 -52.823  1.00  0.00     0.152 C 
HETATM   16  C2  UNK   900      26.313 -24.981 -54.027  1.00  0.00     0.178 C 
HETATM   17  C6  UNK   900      25.722 -23.104 -52.425  1.00  0.00     0.042 C 
HETATM   18  C1  UNK   900      26.131 -26.476 -54.296  1.00  0.00     0.183 C 
HETATM   19  C3  UNK   900      26.364 -27.293 -53.024  1.00  0.00     0.207 C 
BRANCH  16  20
HETATM   20  O5  UNK   900      25.910 -24.269 -55.194  1.00  0.00    -0.390 OA
HETATM   21  H10 UNK   900      26.530 -23.531 -55.326  1.00  0.00     0.210 HD
ENDBRANCH  16  20
BRANCH  18  22
HETATM   22  O4  UNK   900      27.045 -26.886 -55.311  1.00  0.00    -0.390 OA
HETATM   23  H9  UNK   900      26.579 -27.516 -55.887  1.00  0.00     0.210 HD
ENDBRANCH  18  22
BRANCH  19  24
HETATM   24  O2  UNK   900      27.735 -27.206 -52.634  1.00  0.00    -0.383 OA
HETATM   25  C8  UNK   900      28.063 -28.201 -51.678  1.00  0.00     0.202 C 
ENDBRANCH  19  24
ENDBRANCH  12  13
ENDBRANCH   3  12
BRANCH   4  26
HETATM   26  O6  UNK   900      21.557 -26.513 -51.243  1.00  0.00    -0.353 OA
HETATM   27  C18 UNK   900      20.489 -26.009 -50.445  1.00  0.00     0.210 C 
ENDBRANCH   4  26
BRANCH  10  28
HETATM   28  C17 UNK   900      21.929 -32.611 -46.970  1.00  0.00    -0.020 A 
HETATM   29  C19 UNK   900      21.087 -33.626 -47.423  1.00  0.00     0.015 A 
HETATM   30  C21 UNK   900      20.583 -34.569 -46.527  1.00  0.00     0.037 A 
HETATM   31  C23 UNK   900      20.922 -34.495 -45.175  1.00  0.00     0.065 A 
HETATM   32  C22 UNK   900      21.764 -33.481 -44.722  1.00  0.00     0.037 A 
HETATM   33  C20 UNK   900      22.268 -32.539 -45.619  1.00  0.00     0.015 A 
BRANCH  31  34
HETATM   34  O9  UNK   900      20.429 -35.414 -44.299  1.00  0.00    -0.361 OA
HETATM   35  H24 UNK   900      21.099 -35.587 -43.616  1.00  0.00     0.217 HD
ENDBRANCH  31  34
ENDBRANCH  10  28
TORSDOF 8
ENDMDL
MODEL 5
REMARK VINA RESULT:      -6.8     30.676     31.600
REMARK  8 active torsions:
REMARK  status: ('A' for Active; 'I' for Inactive)
REMARK    1  A    between atoms: O2_2  and  C3_12 
REMARK    2  A    between atoms: O3_3  and  C5_14 
REMARK    3  A    between atoms: O3_3  and  C7_16 
REMARK    4  A    between atoms: O4_4  and  C1_10 
REMARK    5  A    between atoms: O5_5  and  C2_11 
REMARK    6  A    between atoms: O6_6  and  C9_18 
REMARK    7  A    between atoms: O9_9  and  C23_32 
REMARK    8  A    between atoms: C15_24  and  C17_26 
ROOT
HETATM    1  O7  UNK   900      12.569 -28.627 -75.787  1.00  0.00    -0.321 OA
HETATM    2  O8  UNK   900       9.004 -30.075 -74.428  1.00  0.00    -0.286 OA
HETATM    3  C7  UNK   900      10.516 -27.975 -78.725  1.00  0.00     0.108 A 
HETATM    4  C9  UNK   900       9.274 -28.465 -78.319  1.00  0.00     0.102 A 
HETATM    5  C10 UNK   900      11.609 -28.037 -77.862  1.00  0.00     0.078 A 
HETATM    6  C11 UNK   900      11.459 -28.592 -76.591  1.00  0.00     0.092 A 
HETATM    7  C12 UNK   900      10.218 -29.083 -76.184  1.00  0.00     0.052 A 
HETATM    8  C13 UNK   900       9.121 -29.020 -77.047  1.00  0.00     0.058 A 
HETATM    9  C14 UNK   900      10.082 -29.661 -74.835  1.00  0.00     0.198 A 
HETATM   10  C15 UNK   900      11.317 -29.697 -74.002  1.00  0.00     0.048 A 
HETATM   11  C16 UNK   900      12.435 -29.188 -74.540  1.00  0.00     0.159 A 
ENDROOT
BRANCH   3  12
HETATM   12  O3  UNK   900      10.672 -27.428 -79.972  1.00  0.00    -0.315 OA
BRANCH  12  13
HETATM   13  C5  UNK   900      10.658 -26.007 -80.053  1.00  0.00     0.298 C 
HETATM   14  O1  UNK   900       9.426 -25.503 -80.582  1.00  0.00    -0.351 OA
HETATM   15  C4  UNK   900       9.169 -25.885 -81.936  1.00  0.00     0.152 C 
HETATM   16  C2  UNK   900      10.283 -25.393 -82.870  1.00  0.00     0.178 C 
HETATM   17  C6  UNK   900       7.809 -25.303 -82.313  1.00  0.00     0.042 C 
HETATM   18  C1  UNK   900      11.643 -25.880 -82.367  1.00  0.00     0.183 C 
HETATM   19  C3  UNK   900      11.840 -25.527 -80.892  1.00  0.00     0.207 C 
BRANCH  16  20
HETATM   20  O5  UNK   900      10.087 -25.904 -84.186  1.00  0.00    -0.390 OA
HETATM   21  H10 UNK   900       9.761 -26.817 -84.109  1.00  0.00     0.210 HD
ENDBRANCH  16  20
BRANCH  18  22
HETATM   22  O4  UNK   900      12.674 -25.285 -83.151  1.00  0.00    -0.390 OA
HETATM   23  H9  UNK   900      12.747 -24.353 -82.881  1.00  0.00     0.210 HD
ENDBRANCH  18  22
BRANCH  19  24
HETATM   24  O2  UNK   900      11.935 -24.110 -80.740  1.00  0.00    -0.383 OA
HETATM   25  C8  UNK   900      12.882 -23.763 -79.742  1.00  0.00     0.202 C 
ENDBRANCH  19  24
ENDBRANCH  12  13
ENDBRANCH   3  12
BRANCH   4  26
HETATM   26  O6  UNK   900       8.201 -28.406 -79.156  1.00  0.00    -0.353 OA
HETATM   27  C18 UNK   900       7.290 -29.503 -79.120  1.00  0.00     0.210 C 
ENDBRANCH   4  26
BRANCH  10  28
HETATM   28  C17 UNK   900      11.328 -30.283 -72.652  1.00  0.00    -0.020 A 
HETATM   29  C19 UNK   900      10.652 -29.648 -71.611  1.00  0.00     0.015 A 
HETATM   30  C21 UNK   900      10.664 -30.202 -70.330  1.00  0.00     0.037 A 
HETATM   31  C23 UNK   900      11.352 -31.392 -70.092  1.00  0.00     0.065 A 
HETATM   32  C22 UNK   900      12.028 -32.027 -71.134  1.00  0.00     0.037 A 
HETATM   33  C20 UNK   900      12.015 -31.473 -72.414  1.00  0.00     0.015 A 
BRANCH  31  34
HETATM   34  O9  UNK   900      11.365 -31.932 -68.843  1.00  0.00    -0.361 OA
HETATM   35  H24 UNK   900      12.287 -32.013 -68.545  1.00  0.00     0.217 HD
ENDBRANCH  31  34
ENDBRANCH  10  28
TORSDOF 8
ENDMDL
MODEL 6
REMARK VINA RESULT:      -6.5     36.999     39.613
REMARK  8 active torsions:
REMARK  status: ('A' for Active; 'I' for Inactive)
REMARK    1  A    between atoms: O2_2  and  C3_12 
REMARK    2  A    between atoms: O3_3  and  C5_14 
REMARK    3  A    between atoms: O3_3  and  C7_16 
REMARK    4  A    between atoms: O4_4  and  C1_10 
REMARK    5  A    between atoms: O5_5  and  C2_11 
REMARK    6  A    between atoms: O6_6  and  C9_18 
REMARK    7  A    between atoms: O9_9  and  C23_32 
REMARK    8  A    between atoms: C15_24  and  C17_26 
ROOT
HETATM    1  O7  UNK   900      22.644 -66.973 -64.413  1.00  0.00    -0.321 OA
HETATM    2  O8  UNK   900      24.263 -65.771 -67.960  1.00  0.00    -0.286 OA
HETATM    3  C7  UNK   900      19.671 -65.540 -65.956  1.00  0.00     0.108 A 
HETATM    4  C9  UNK   900      20.171 -65.098 -67.181  1.00  0.00     0.102 A 
HETATM    5  C10 UNK   900      20.515 -66.167 -65.040  1.00  0.00     0.078 A 
HETATM    6  C11 UNK   900      21.863 -66.351 -65.352  1.00  0.00     0.092 A 
HETATM    7  C12 UNK   900      22.363 -65.909 -66.576  1.00  0.00     0.052 A 
HETATM    8  C13 UNK   900      21.519 -65.281 -67.495  1.00  0.00     0.058 A 
HETATM    9  C14 UNK   900      23.789 -66.118 -66.885  1.00  0.00     0.198 A 
HETATM   10  C15 UNK   900      24.607 -66.779 -65.830  1.00  0.00     0.048 A 
HETATM   11  C16 UNK   900      23.976 -67.142 -64.703  1.00  0.00     0.159 A 
ENDROOT
BRANCH   3  12
HETATM   12  O3  UNK   900      18.349 -65.364 -65.641  1.00  0.00    -0.315 OA
BRANCH  12  13
HETATM   13  C5  UNK   900      17.466 -66.432 -65.967  1.00  0.00     0.298 C 
HETATM   14  O1  UNK   900      16.629 -66.126 -67.088  1.00  0.00    -0.351 OA
HETATM   15  C4  UNK   900      15.722 -65.043 -66.864  1.00  0.00     0.152 C 
HETATM   16  C2  UNK   900      14.786 -65.342 -65.684  1.00  0.00     0.178 C 
HETATM   17  C6  UNK   900      14.951 -64.831 -68.164  1.00  0.00     0.042 C 
HETATM   18  C1  UNK   900      15.605 -65.692 -64.441  1.00  0.00     0.183 C 
HETATM   19  C3  UNK   900      16.622 -66.793 -64.747  1.00  0.00     0.207 C 
BRANCH  16  20
HETATM   20  O5  UNK   900      13.990 -64.198 -65.383  1.00  0.00    -0.390 OA
HETATM   21  H10 UNK   900      13.243 -64.179 -66.004  1.00  0.00     0.210 HD
ENDBRANCH  16  20
BRANCH  18  22
HETATM   22  O4  UNK   900      14.724 -66.119 -63.403  1.00  0.00    -0.390 OA
HETATM   23  H9  UNK   900      13.996 -65.476 -63.355  1.00  0.00     0.210 HD
ENDBRANCH  18  22
BRANCH  19  24
HETATM   24  O2  UNK   900      15.942 -68.016 -65.034  1.00  0.00    -0.383 OA
HETATM   25  C8  UNK   900      16.588 -69.120 -64.419  1.00  0.00     0.202 C 
ENDBRANCH  19  24
ENDBRANCH  12  13
ENDBRANCH   3  12
BRANCH   4  26
HETATM   26  O6  UNK   900      19.352 -64.486 -68.081  1.00  0.00    -0.353 OA
HETATM   27  C18 UNK   900      19.137 -65.155 -69.321  1.00  0.00     0.210 C 
ENDBRANCH   4  26
BRANCH  10  28
HETATM   28  C17 UNK   900      26.050 -67.011 -65.995  1.00  0.00    -0.020 A 
HETATM   29  C19 UNK   900      26.967 -66.228 -65.294  1.00  0.00     0.015 A 
HETATM   30  C21 UNK   900      28.336 -66.447 -65.450  1.00  0.00     0.037 A 
HETATM   31  C23 UNK   900      28.788 -67.449 -66.310  1.00  0.00     0.065 A 
HETATM   32  C22 UNK   900      27.871 -68.232 -67.010  1.00  0.00     0.037 A 
HETATM   33  C20 UNK   900      26.502 -68.014 -66.853  1.00  0.00     0.015 A 
BRANCH  31  34
HETATM   34  O9  UNK   900      30.123 -67.662 -66.464  1.00  0.00    -0.361 OA
HETATM   35  H24 UNK   900      30.607 -66.912 -66.077  1.00  0.00     0.217 HD
ENDBRANCH  31  34
ENDBRANCH  10  28
TORSDOF 8
ENDMDL
MODEL 7
REMARK VINA RESULT:      -6.5      2.902      5.187
REMARK  8 active torsions:
REMARK  status: ('A' for Active; 'I' for Inactive)
REMARK    1  A    between atoms: O2_2  and  C3_12 
REMARK    2  A    between atoms: O3_3  and  C5_14 
REMARK    3  A    between atoms: O3_3  and  C7_16 
REMARK    4  A    between atoms: O4_4  and  C1_10 
REMARK    5  A    between atoms: O5_5  and  C2_11 
REMARK    6  A    between atoms: O6_6  and  C9_18 
REMARK    7  A    between atoms: O9_9  and  C23_32 
REMARK    8  A    between atoms: C15_24  and  C17_26 
ROOT
HETATM    1  O7  UNK   900      35.722 -35.612 -56.129  1.00  0.00    -0.321 OA
HETATM    2  O8  UNK   900      36.984 -38.438 -58.787  1.00  0.00    -0.286 OA
HETATM    3  C7  UNK   900      36.279 -33.478 -59.029  1.00  0.00     0.108 A 
HETATM    4  C9  UNK   900      36.727 -34.399 -59.977  1.00  0.00     0.102 A 
HETATM    5  C10 UNK   900      35.947 -33.903 -57.743  1.00  0.00     0.078 A 
HETATM    6  C11 UNK   900      36.064 -35.253 -57.407  1.00  0.00     0.092 A 
HETATM    7  C12 UNK   900      36.511 -36.173 -58.354  1.00  0.00     0.052 A 
HETATM    8  C13 UNK   900      36.844 -35.749 -59.643  1.00  0.00     0.058 A 
HETATM    9  C14 UNK   900      36.623 -37.594 -57.977  1.00  0.00     0.198 A 
HETATM   10  C15 UNK   900      36.262 -37.938 -56.574  1.00  0.00     0.048 A 
HETATM   11  C16 UNK   900      35.851 -36.935 -55.783  1.00  0.00     0.159 A 
ENDROOT
BRANCH   3  12
HETATM   12  O3  UNK   900      36.162 -32.151 -59.350  1.00  0.00    -0.315 OA
BRANCH  12  13
HETATM   13  C5  UNK   900      36.811 -31.225 -58.486  1.00  0.00     0.298 C 
HETATM   14  O1  UNK   900      36.100 -29.987 -58.379  1.00  0.00    -0.351 OA
HETATM   15  C4  UNK   900      36.016 -29.250 -59.603  1.00  0.00     0.152 C 
HETATM   16  C2  UNK   900      37.414 -28.910 -60.139  1.00  0.00     0.178 C 
HETATM   17  C6  UNK   900      35.195 -27.997 -59.314  1.00  0.00     0.042 C 
HETATM   18  C1  UNK   900      38.249 -30.184 -60.273  1.00  0.00     0.183 C 
HETATM   19  C3  UNK   900      38.240 -30.985 -58.969  1.00  0.00     0.207 C 
BRANCH  16  20
HETATM   20  O5  UNK   900      37.316 -28.307 -61.427  1.00  0.00    -0.390 OA
HETATM   21  H10 UNK   900      37.302 -27.342 -61.307  1.00  0.00     0.210 HD
ENDBRANCH  16  20
BRANCH  18  22
HETATM   22  O4  UNK   900      39.588 -29.834 -60.618  1.00  0.00    -0.390 OA
HETATM   23  H9  UNK   900      39.581 -28.907 -60.911  1.00  0.00     0.210 HD
ENDBRANCH  18  22
BRANCH  19  24
HETATM   24  O2  UNK   900      38.928 -30.260 -57.948  1.00  0.00    -0.383 OA
HETATM   25  C8  UNK   900      39.391 -31.127 -56.925  1.00  0.00     0.202 C 
ENDBRANCH  19  24
ENDBRANCH  12  13
ENDBRANCH   3  12
BRANCH   4  26
HETATM   26  O6  UNK   900      37.053 -33.991 -61.235  1.00  0.00    -0.353 OA
HETATM   27  C18 UNK   900      38.428 -33.719 -61.493  1.00  0.00     0.210 C 
ENDBRANCH   4  26
BRANCH  10  28
HETATM   28  C17 UNK   900      36.366 -39.311 -56.057  1.00  0.00    -0.020 A 
HETATM   29  C19 UNK   900      37.620 -39.888 -55.857  1.00  0.00     0.015 A 
HETATM   30  C21 UNK   900      37.720 -41.191 -55.369  1.00  0.00     0.037 A 
HETATM   31  C23 UNK   900      36.564 -41.918 -55.082  1.00  0.00     0.065 A 
HETATM   32  C22 UNK   900      35.310 -41.342 -55.282  1.00  0.00     0.037 A 
HETATM   33  C20 UNK   900      35.211 -40.038 -55.770  1.00  0.00     0.015 A 
BRANCH  31  34
HETATM   34  O9  UNK   900      36.661 -43.190 -54.607  1.00  0.00    -0.361 OA
HETATM   35  H24 UNK   900      35.773 -43.586 -54.585  1.00  0.00     0.217 HD
ENDBRANCH  31  34
ENDBRANCH  10  28
TORSDOF 8
ENDMDL
MODEL 8
REMARK VINA RESULT:      -6.4      1.763      3.686
REMARK  8 active torsions:
REMARK  status: ('A' for Active; 'I' for Inactive)
REMARK    1  A    between atoms: O2_2  and  C3_12 
REMARK    2  A    between atoms: O3_3  and  C5_14 
REMARK    3  A    between atoms: O3_3  and  C7_16 
REMARK    4  A    between atoms: O4_4  and  C1_10 
REMARK    5  A    between atoms: O5_5  and  C2_11 
REMARK    6  A    between atoms: O6_6  and  C9_18 
REMARK    7  A    between atoms: O9_9  and  C23_32 
REMARK    8  A    between atoms: C15_24  and  C17_26 
ROOT
HETATM    1  O7  UNK   900      35.009 -33.001 -59.387  1.00  0.00    -0.321 OA
HETATM    2  O8  UNK   900      36.924 -36.550 -58.766  1.00  0.00    -0.286 OA
HETATM    3  C7  UNK   900      38.050 -32.364 -61.290  1.00  0.00     0.108 A 
HETATM    4  C9  UNK   900      38.757 -33.552 -61.102  1.00  0.00     0.102 A 
HETATM    5  C10 UNK   900      36.795 -32.197 -60.707  1.00  0.00     0.078 A 
HETATM    6  C11 UNK   900      36.246 -33.222 -59.935  1.00  0.00     0.092 A 
HETATM    7  C12 UNK   900      36.952 -34.410 -59.747  1.00  0.00     0.052 A 
HETATM    8  C13 UNK   900      38.210 -34.579 -60.331  1.00  0.00     0.058 A 
HETATM    9  C14 UNK   900      36.351 -35.480 -58.931  1.00  0.00     0.198 A 
HETATM   10  C15 UNK   900      35.016 -35.192 -58.338  1.00  0.00     0.048 A 
HETATM   11  C16 UNK   900      34.469 -33.997 -58.611  1.00  0.00     0.159 A 
ENDROOT
BRANCH   3  12
HETATM   12  O3  UNK   900      38.581 -31.352 -62.046  1.00  0.00    -0.315 OA
BRANCH  12  13
HETATM   13  C5  UNK   900      37.870 -30.119 -62.052  1.00  0.00     0.298 C 
HETATM   14  O1  UNK   900      37.859 -29.502 -63.345  1.00  0.00    -0.351 OA
HETATM   15  C4  UNK   900      39.150 -29.108 -63.818  1.00  0.00     0.152 C 
HETATM   16  C2  UNK   900      39.808 -28.107 -62.857  1.00  0.00     0.178 C 
HETATM   17  C6  UNK   900      38.954 -28.517 -65.211  1.00  0.00     0.042 C 
HETATM   18  C1  UNK   900      39.849 -28.686 -61.442  1.00  0.00     0.183 C 
HETATM   19  C3  UNK   900      38.465 -29.175 -61.010  1.00  0.00     0.207 C 
BRANCH  16  20
HETATM   20  O5  UNK   900      41.147 -27.837 -63.265  1.00  0.00    -0.390 OA
HETATM   21  H10 UNK   900      41.131 -27.074 -63.867  1.00  0.00     0.210 HD
ENDBRANCH  16  20
BRANCH  18  22
HETATM   22  O4  UNK   900      40.315 -27.686 -60.539  1.00  0.00    -0.390 OA
HETATM   23  H9  UNK   900      39.837 -27.804 -59.700  1.00  0.00     0.210 HD
ENDBRANCH  18  22
BRANCH  19  24
HETATM   24  O2  UNK   900      37.579 -28.064 -60.872  1.00  0.00    -0.383 OA
HETATM   25  C8  UNK   900      36.394 -28.433 -60.184  1.00  0.00     0.202 C 
ENDBRANCH  19  24
ENDBRANCH  12  13
ENDBRANCH   3  12
BRANCH   4  26
HETATM   26  O6  UNK   900      39.983 -33.723 -61.669  1.00  0.00    -0.353 OA
HETATM   27  C18 UNK   900      40.608 -34.992 -61.493  1.00  0.00     0.210 C 
ENDBRANCH   4  26
BRANCH  10  28
HETATM   28  C17 UNK   900      34.323 -36.158 -57.472  1.00  0.00    -0.020 A 
HETATM   29  C19 UNK   900      34.977 -36.695 -56.363  1.00  0.00     0.015 A 
HETATM   30  C21 UNK   900      34.322 -37.613 -55.542  1.00  0.00     0.037 A 
HETATM   31  C23 UNK   900      33.011 -37.994 -55.831  1.00  0.00     0.065 A 
HETATM   32  C22 UNK   900      32.357 -37.458 -56.939  1.00  0.00     0.037 A 
HETATM   33  C20 UNK   900      33.013 -36.539 -57.760  1.00  0.00     0.015 A 
BRANCH  31  34
HETATM   34  O9  UNK   900      32.372 -38.891 -55.031  1.00  0.00    -0.361 OA
HETATM   35  H24 UNK   900      32.315 -38.525 -54.131  1.00  0.00     0.217 HD
ENDBRANCH  31  34
ENDBRANCH  10  28
TORSDOF 8
ENDMDL
MODEL 9
REMARK VINA RESULT:      -6.3     14.103     16.872
REMARK  8 active torsions:
REMARK  status: ('A' for Active; 'I' for Inactive)
REMARK    1  A    between atoms: O2_2  and  C3_12 
REMARK    2  A    between atoms: O3_3  and  C5_14 
REMARK    3  A    between atoms: O3_3  and  C7_16 
REMARK    4  A    between atoms: O4_4  and  C1_10 
REMARK    5  A    between atoms: O5_5  and  C2_11 
REMARK    6  A    between atoms: O6_6  and  C9_18 
REMARK    7  A    between atoms: O9_9  and  C23_32 
REMARK    8  A    between atoms: C15_24  and  C17_26 
ROOT
HETATM    1  O7  UNK   900      21.783 -29.538 -49.529  1.00  0.00    -0.321 OA
HETATM    2  O8  UNK   900      24.632 -32.197 -48.319  1.00  0.00    -0.286 OA
HETATM    3  C7  UNK   900      24.577 -28.358 -51.548  1.00  0.00     0.108 A 
HETATM    4  C9  UNK   900      25.595 -29.233 -51.164  1.00  0.00     0.102 A 
HETATM    5  C10 UNK   900      23.306 -28.476 -50.989  1.00  0.00     0.078 A 
HETATM    6  C11 UNK   900      23.052 -29.471 -50.044  1.00  0.00     0.092 A 
HETATM    7  C12 UNK   900      24.068 -30.345 -49.660  1.00  0.00     0.052 A 
HETATM    8  C13 UNK   900      25.344 -30.229 -50.219  1.00  0.00     0.058 A 
HETATM    9  C14 UNK   900      23.776 -31.390 -48.662  1.00  0.00     0.198 A 
HETATM   10  C15 UNK   900      22.392 -31.416 -48.114  1.00  0.00     0.048 A 
HETATM   11  C16 UNK   900      21.529 -30.503 -48.585  1.00  0.00     0.159 A 
ENDROOT
BRANCH   3  12
HETATM   12  O3  UNK   900      24.817 -27.378 -52.475  1.00  0.00    -0.315 OA
BRANCH  12  13
HETATM   13  C5  UNK   900      25.125 -26.083 -51.970  1.00  0.00     0.298 C 
HETATM   14  O1  UNK   900      24.004 -25.194 -52.031  1.00  0.00    -0.351 OA
HETATM   15  C4  UNK   900      23.557 -24.902 -53.358  1.00  0.00     0.152 C 
HETATM   16  C2  UNK   900      24.677 -24.257 -54.188  1.00  0.00     0.178 C 
HETATM   17  C6  UNK   900      22.343 -23.987 -53.229  1.00  0.00     0.042 C 
HETATM   18  C1  UNK   900      25.923 -25.143 -54.166  1.00  0.00     0.183 C 
HETATM   19  C3  UNK   900      26.315 -25.502 -52.732  1.00  0.00     0.207 C 
BRANCH  16  20
HETATM   20  O5  UNK   900      24.263 -24.107 -55.544  1.00  0.00    -0.390 OA
HETATM   21  H10 UNK   900      24.481 -23.204 -55.828  1.00  0.00     0.210 HD
ENDBRANCH  16  20
BRANCH  18  22
HETATM   22  O4  UNK   900      26.998 -24.458 -54.805  1.00  0.00    -0.390 OA
HETATM   23  H9  UNK   900      27.657 -24.246 -54.123  1.00  0.00     0.210 HD
ENDBRANCH  18  22
BRANCH  19  24
HETATM   24  O2  UNK   900      26.746 -24.331 -52.037  1.00  0.00    -0.383 OA
HETATM   25  C8  UNK   900      27.995 -24.542 -51.399  1.00  0.00     0.202 C 
ENDBRANCH  19  24
ENDBRANCH  12  13
ENDBRANCH   3  12
BRANCH   4  26
HETATM   26  O6  UNK   900      26.840 -29.125 -51.706  1.00  0.00    -0.353 OA
HETATM   27  C18 UNK   900      27.832 -28.463 -50.925  1.00  0.00     0.210 C 
ENDBRANCH   4  26
BRANCH  10  28
HETATM   28  C17 UNK   900      21.980 -32.382 -47.085  1.00  0.00    -0.020 A 
HETATM   29  C19 UNK   900      22.305 -32.158 -45.747  1.00  0.00     0.015 A 
HETATM   30  C21 UNK   900      21.916 -33.075 -44.770  1.00  0.00     0.037 A 
HETATM   31  C23 UNK   900      21.201 -34.218 -45.132  1.00  0.00     0.065 A 
HETATM   32  C22 UNK   900      20.876 -34.442 -46.470  1.00  0.00     0.037 A 
HETATM   33  C20 UNK   900      21.265 -33.524 -47.446  1.00  0.00     0.015 A 
BRANCH  31  34
HETATM   34  O9  UNK   900      20.823 -35.113 -44.180  1.00  0.00    -0.361 OA
HETATM   35  H24 UNK   900      21.496 -35.129 -43.478  1.00  0.00     0.217 HD
ENDBRANCH  31  34
ENDBRANCH  10  28
TORSDOF 8
ENDMDL
