MODEL 1
REMARK VINA RESULT:      -8.1      0.000      0.000
REMARK  1 active torsions:
REMARK  status: ('A' for Active; 'I' for Inactive)
REMARK    1  A    between atoms: O1_1  and  C7_8 
ROOT
HETATM    1  C1  UNK   900      23.548 -39.245 -68.233  1.00  0.00    -0.015 A 
HETATM    2  C2  UNK   900      24.166 -38.188 -67.309  1.00  0.00     0.025 A 
HETATM    3  C3  UNK   900      22.463 -40.187 -67.598  1.00  0.00    -0.032 C 
HETATM    4  C4  UNK   900      24.973 -39.391 -67.717  1.00  0.00     0.021 A 
HETATM    5  C5  UNK   900      23.331 -38.855 -69.745  1.00  0.00    -0.013 C 
HETATM    6  C6  UNK   900      21.053 -39.632 -67.918  1.00  0.00     0.012 C 
HETATM    7  C7  UNK   900      21.857 -38.402 -69.956  1.00  0.00     0.126 C 
HETATM    8  C8  UNK   900      22.592 -40.285 -66.037  1.00  0.00     0.037 C 
HETATM    9  C9  UNK   900      23.661 -38.060 -65.931  1.00  0.00    -0.083 C 
HETATM   10  C10 UNK   900      20.823 -39.375 -69.399  1.00  0.00     0.033 C 
HETATM   11  C11 UNK   900      22.590 -41.643 -68.098  1.00  0.00     0.016 C 
HETATM   12  C12 UNK   900      23.715 -40.026 -70.680  1.00  0.00     0.018 C 
HETATM   13  C13 UNK   900      24.224 -37.666 -70.212  1.00  0.00     0.018 C 
HETATM   14  C14 UNK   900      22.925 -39.010 -65.332  1.00  0.00    -0.023 C 
HETATM   15  C15 UNK   900      24.020 -36.797 -65.200  1.00  0.00     0.043 C 
ENDROOT
BRANCH   7  16
HETATM   16  O1  UNK   900      21.593 -38.206 -71.345  1.00  0.00    -0.395 OA
HETATM   17  H24 UNK   900      20.704 -38.556 -71.528  1.00  0.00     0.210 HD
ENDBRANCH   7  16
TORSDOF 1
ENDMDL
MODEL 2
REMARK VINA RESULT:      -7.7      2.879      4.513
REMARK  1 active torsions:
REMARK  status: ('A' for Active; 'I' for Inactive)
REMARK    1  A    between atoms: O1_1  and  C7_8 
ROOT
HETATM    1  C1  UNK   900      23.869 -35.759 -67.232  1.00  0.00    -0.015 A 
HETATM    2  C2  UNK   900      23.793 -36.683 -66.010  1.00  0.00     0.025 A 
HETATM    3  C3  UNK   900      23.792 -36.450 -68.641  1.00  0.00    -0.032 C 
HETATM    4  C4  UNK   900      25.104 -36.049 -66.390  1.00  0.00     0.021 A 
HETATM    5  C5  UNK   900      23.195 -34.339 -67.116  1.00  0.00    -0.013 C 
HETATM    6  C6  UNK   900      22.335 -36.391 -69.161  1.00  0.00     0.012 C 
HETATM    7  C7  UNK   900      21.775 -34.386 -67.753  1.00  0.00     0.126 C 
HETATM    8  C8  UNK   900      24.219 -37.959 -68.595  1.00  0.00     0.037 C 
HETATM    9  C9  UNK   900      23.573 -38.125 -66.215  1.00  0.00    -0.083 C 
HETATM   10  C10 UNK   900      21.743 -34.990 -69.153  1.00  0.00     0.033 C 
HETATM   11  C11 UNK   900      24.750 -35.799 -69.662  1.00  0.00     0.016 C 
HETATM   12  C12 UNK   900      24.082 -33.250 -67.765  1.00  0.00     0.018 C 
HETATM   13  C13 UNK   900      22.997 -33.865 -65.645  1.00  0.00     0.018 C 
HETATM   14  C14 UNK   900      23.753 -38.728 -67.400  1.00  0.00    -0.023 C 
HETATM   15  C15 UNK   900      23.139 -38.914 -65.012  1.00  0.00     0.043 C 
ENDROOT
BRANCH   7  16
HETATM   16  O1  UNK   900      21.215 -33.075 -67.812  1.00  0.00    -0.395 OA
HETATM   17  H24 UNK   900      21.866 -32.459 -67.437  1.00  0.00     0.210 HD
ENDBRANCH   7  16
TORSDOF 1
ENDMDL
MODEL 3
REMARK VINA RESULT:      -7.6      3.321      5.514
REMARK  1 active torsions:
REMARK  status: ('A' for Active; 'I' for Inactive)
REMARK    1  A    between atoms: O1_1  and  C7_8 
ROOT
HETATM    1  C1  UNK   900      23.859 -35.750 -67.138  1.00  0.00    -0.015 A 
HETATM    2  C2  UNK   900      22.812 -36.613 -67.854  1.00  0.00     0.025 A 
HETATM    3  C3  UNK   900      25.363 -36.152 -67.347  1.00  0.00    -0.032 C 
HETATM    4  C4  UNK   900      22.986 -36.728 -66.363  1.00  0.00     0.021 A 
HETATM    5  C5  UNK   900      23.563 -34.208 -67.002  1.00  0.00    -0.013 C 
HETATM    6  C6  UNK   900      25.973 -35.284 -68.475  1.00  0.00     0.012 C 
HETATM    7  C7  UNK   900      24.302 -33.438 -68.135  1.00  0.00     0.126 C 
HETATM    8  C8  UNK   900      25.531 -37.656 -67.762  1.00  0.00     0.037 C 
HETATM    9  C9  UNK   900      23.264 -37.695 -68.745  1.00  0.00    -0.083 C 
HETATM   10  C10 UNK   900      25.781 -33.790 -68.263  1.00  0.00     0.033 C 
HETATM   11  C11 UNK   900      26.191 -36.004 -66.052  1.00  0.00     0.016 C 
HETATM   12  C12 UNK   900      23.959 -33.689 -65.599  1.00  0.00     0.018 C 
HETATM   13  C13 UNK   900      22.053 -33.851 -67.145  1.00  0.00     0.018 C 
HETATM   14  C14 UNK   900      24.516 -38.181 -68.725  1.00  0.00    -0.023 C 
HETATM   15  C15 UNK   900      22.241 -38.254 -69.694  1.00  0.00     0.043 C 
ENDROOT
BRANCH   7  16
HETATM   16  O1  UNK   900      24.189 -32.029 -67.933  1.00  0.00    -0.395 OA
HETATM   17  H24 UNK   900      23.757 -31.653 -68.719  1.00  0.00     0.210 HD
ENDBRANCH   7  16
TORSDOF 1
ENDMDL
MODEL 4
REMARK VINA RESULT:      -7.0      3.517      5.970
REMARK  1 active torsions:
REMARK  status: ('A' for Active; 'I' for Inactive)
REMARK    1  A    between atoms: O1_1  and  C7_8 
ROOT
HETATM    1  C1  UNK   900      24.047 -35.829 -67.585  1.00  0.00    -0.015 A 
HETATM    2  C2  UNK   900      22.797 -36.541 -68.117  1.00  0.00     0.025 A 
HETATM    3  C3  UNK   900      24.307 -34.375 -68.120  1.00  0.00    -0.032 C 
HETATM    4  C4  UNK   900      24.161 -36.964 -68.594  1.00  0.00     0.021 A 
HETATM    5  C5  UNK   900      24.463 -36.105 -66.090  1.00  0.00    -0.013 C 
HETATM    6  C6  UNK   900      23.752 -33.348 -67.102  1.00  0.00     0.012 C 
HETATM    7  C7  UNK   900      23.925 -34.960 -65.183  1.00  0.00     0.126 C 
HETATM    8  C8  UNK   900      23.606 -34.105 -69.497  1.00  0.00     0.037 C 
HETATM    9  C9  UNK   900      21.884 -35.812 -69.015  1.00  0.00    -0.083 C 
HETATM   10  C10 UNK   900      24.262 -33.560 -65.685  1.00  0.00     0.033 C 
HETATM   11  C11 UNK   900      25.807 -34.110 -68.381  1.00  0.00     0.016 C 
HETATM   12  C12 UNK   900      25.996 -36.270 -65.964  1.00  0.00     0.018 C 
HETATM   13  C13 UNK   900      23.873 -37.429 -65.518  1.00  0.00     0.018 C 
HETATM   14  C14 UNK   900      22.235 -34.683 -69.650  1.00  0.00    -0.023 C 
HETATM   15  C15 UNK   900      20.516 -36.403 -69.204  1.00  0.00     0.043 C 
ENDROOT
BRANCH   7  16
HETATM   16  O1  UNK   900      24.432 -35.100 -63.856  1.00  0.00    -0.395 OA
HETATM   17  H24 UNK   900      23.699 -35.394 -63.290  1.00  0.00     0.210 HD
ENDBRANCH   7  16
TORSDOF 1
ENDMDL
MODEL 5
REMARK VINA RESULT:      -6.9      2.826      4.527
REMARK  1 active torsions:
REMARK  status: ('A' for Active; 'I' for Inactive)
REMARK    1  A    between atoms: O1_1  and  C7_8 
ROOT
HETATM    1  C1  UNK   900      23.918 -36.925 -67.421  1.00  0.00    -0.015 A 
HETATM    2  C2  UNK   900      22.981 -37.594 -66.408  1.00  0.00     0.025 A 
HETATM    3  C3  UNK   900      23.351 -36.718 -68.871  1.00  0.00    -0.032 C 
HETATM    4  C4  UNK   900      24.148 -38.361 -66.970  1.00  0.00     0.021 A 
HETATM    5  C5  UNK   900      24.889 -35.803 -66.887  1.00  0.00    -0.013 C 
HETATM    6  C6  UNK   900      22.797 -35.278 -69.004  1.00  0.00     0.012 C 
HETATM    7  C7  UNK   900      24.262 -34.404 -67.159  1.00  0.00     0.126 C 
HETATM    8  C8  UNK   900      22.183 -37.709 -69.208  1.00  0.00     0.037 C 
HETATM    9  C9  UNK   900      21.604 -37.924 -66.814  1.00  0.00    -0.083 C 
HETATM   10  C10 UNK   900      23.794 -34.203 -68.596  1.00  0.00     0.033 C 
HETATM   11  C11 UNK   900      24.418 -36.981 -69.957  1.00  0.00     0.016 C 
HETATM   12  C12 UNK   900      26.294 -35.940 -67.519  1.00  0.00     0.018 C 
HETATM   13  C13 UNK   900      25.136 -35.879 -65.350  1.00  0.00     0.018 C 
HETATM   14  C14 UNK   900      21.215 -37.971 -68.098  1.00  0.00    -0.023 C 
HETATM   15  C15 UNK   900      20.632 -38.224 -65.709  1.00  0.00     0.043 C 
ENDROOT
BRANCH   7  16
HETATM   16  O1  UNK   900      25.196 -33.373 -66.839  1.00  0.00    -0.395 OA
HETATM   17  H24 UNK   900      25.926 -33.428 -67.478  1.00  0.00     0.210 HD
ENDBRANCH   7  16
TORSDOF 1
ENDMDL
MODEL 6
REMARK VINA RESULT:      -6.9      3.108      4.576
REMARK  1 active torsions:
REMARK  status: ('A' for Active; 'I' for Inactive)
REMARK    1  A    between atoms: O1_1  and  C7_8 
ROOT
HETATM    1  C1  UNK   900      24.287 -36.101 -68.293  1.00  0.00    -0.015 A 
HETATM    2  C2  UNK   900      25.750 -36.470 -68.563  1.00  0.00     0.025 A 
HETATM    3  C3  UNK   900      23.420 -37.171 -67.537  1.00  0.00    -0.032 C 
HETATM    4  C4  UNK   900      24.758 -36.462 -69.695  1.00  0.00     0.021 A 
HETATM    5  C5  UNK   900      23.962 -34.591 -67.973  1.00  0.00    -0.013 C 
HETATM    6  C6  UNK   900      23.389 -36.831 -66.026  1.00  0.00     0.012 C 
HETATM    7  C7  UNK   900      23.868 -34.398 -66.431  1.00  0.00     0.126 C 
HETATM    8  C8  UNK   900      23.995 -38.623 -67.685  1.00  0.00     0.037 C 
HETATM    9  C9  UNK   900      26.276 -37.742 -68.039  1.00  0.00    -0.083 C 
HETATM   10  C10 UNK   900      22.956 -35.402 -65.734  1.00  0.00     0.033 C 
HETATM   11  C11 UNK   900      21.982 -37.256 -68.095  1.00  0.00     0.016 C 
HETATM   12  C12 UNK   900      22.668 -34.139 -68.692  1.00  0.00     0.018 C 
HETATM   13  C13 UNK   900      25.059 -33.603 -68.471  1.00  0.00     0.018 C 
HETATM   14  C14 UNK   900      25.484 -38.741 -67.620  1.00  0.00    -0.023 C 
HETATM   15  C15 UNK   900      27.772 -37.885 -68.002  1.00  0.00     0.043 C 
ENDROOT
BRANCH   7  16
HETATM   16  O1  UNK   900      23.409 -33.081 -66.125  1.00  0.00    -0.395 OA
HETATM   17  H24 UNK   900      23.945 -32.455 -66.641  1.00  0.00     0.210 HD
ENDBRANCH   7  16
TORSDOF 1
ENDMDL
MODEL 7
REMARK VINA RESULT:      -6.7     13.131     14.785
REMARK  1 active torsions:
REMARK  status: ('A' for Active; 'I' for Inactive)
REMARK    1  A    between atoms: O1_1  and  C7_8 
ROOT
HETATM    1  C1  UNK   900      31.217 -48.862 -61.801  1.00  0.00    -0.015 A 
HETATM    2  C2  UNK   900      30.286 -48.268 -62.865  1.00  0.00     0.025 A 
HETATM    3  C3  UNK   900      32.517 -48.045 -61.469  1.00  0.00    -0.032 C 
HETATM    4  C4  UNK   900      31.124 -49.475 -63.191  1.00  0.00     0.021 A 
HETATM    5  C5  UNK   900      30.550 -49.628 -60.594  1.00  0.00    -0.013 C 
HETATM    6  C6  UNK   900      32.267 -47.169 -60.217  1.00  0.00     0.012 C 
HETATM    7  C7  UNK   900      30.437 -48.669 -59.373  1.00  0.00     0.126 C 
HETATM    8  C8  UNK   900      32.942 -47.090 -62.639  1.00  0.00     0.037 C 
HETATM    9  C9  UNK   900      30.610 -46.953 -63.447  1.00  0.00    -0.083 C 
HETATM   10  C10 UNK   900      31.736 -47.950 -59.025  1.00  0.00     0.033 C 
HETATM   11  C11 UNK   900      33.739 -48.962 -61.243  1.00  0.00     0.016 C 
HETATM   12  C12 UNK   900      31.341 -50.912 -60.249  1.00  0.00     0.018 C 
HETATM   13  C13 UNK   900      29.104 -50.121 -60.898  1.00  0.00     0.018 C 
HETATM   14  C14 UNK   900      31.825 -46.390 -63.344  1.00  0.00    -0.023 C 
HETATM   15  C15 UNK   900      29.504 -46.257 -64.188  1.00  0.00     0.043 C 
ENDROOT
BRANCH   7  16
HETATM   16  O1  UNK   900      29.994 -49.386 -58.221  1.00  0.00    -0.395 OA
HETATM   17  H24 UNK   900      29.552 -48.752 -57.631  1.00  0.00     0.210 HD
ENDBRANCH   7  16
TORSDOF 1
ENDMDL
MODEL 8
REMARK VINA RESULT:      -6.2     16.135     18.441
REMARK  1 active torsions:
REMARK  status: ('A' for Active; 'I' for Inactive)
REMARK    1  A    between atoms: O1_1  and  C7_8 
ROOT
HETATM    1  C1  UNK   900      25.088 -23.163 -75.356  1.00  0.00    -0.015 A 
HETATM    2  C2  UNK   900      25.698 -23.156 -76.763  1.00  0.00     0.025 A 
HETATM    3  C3  UNK   900      25.614 -22.071 -74.357  1.00  0.00    -0.032 C 
HETATM    4  C4  UNK   900      26.079 -24.236 -75.787  1.00  0.00     0.021 A 
HETATM    5  C5  UNK   900      23.567 -23.555 -75.221  1.00  0.00    -0.013 C 
HETATM    6  C6  UNK   900      24.642 -20.865 -74.359  1.00  0.00     0.012 C 
HETATM    7  C7  UNK   900      22.705 -22.260 -75.143  1.00  0.00     0.126 C 
HETATM    8  C8  UNK   900      27.036 -21.535 -74.745  1.00  0.00     0.037 C 
HETATM    9  C9  UNK   900      26.659 -22.098 -77.122  1.00  0.00    -0.083 C 
HETATM   10  C10 UNK   900      23.193 -21.252 -74.107  1.00  0.00     0.033 C 
HETATM   11  C11 UNK   900      25.777 -22.623 -72.923  1.00  0.00     0.016 C 
HETATM   12  C12 UNK   900      23.338 -24.476 -74.000  1.00  0.00     0.018 C 
HETATM   13  C13 UNK   900      23.026 -24.365 -76.438  1.00  0.00     0.018 C 
HETATM   14  C14 UNK   900      27.277 -21.335 -76.207  1.00  0.00    -0.023 C 
HETATM   15  C15 UNK   900      26.935 -21.911 -78.587  1.00  0.00     0.043 C 
ENDROOT
BRANCH   7  16
HETATM   16  O1  UNK   900      21.347 -22.587 -74.851  1.00  0.00    -0.395 OA
HETATM   17  H24 UNK   900      21.240 -23.545 -74.979  1.00  0.00     0.210 HD
ENDBRANCH   7  16
TORSDOF 1
ENDMDL
MODEL 9
REMARK VINA RESULT:      -6.0     13.742     15.234
REMARK  1 active torsions:
REMARK  status: ('A' for Active; 'I' for Inactive)
REMARK    1  A    between atoms: O1_1  and  C7_8 
ROOT
HETATM    1  C1  UNK   900      32.178 -48.563 -61.771  1.00  0.00    -0.015 A 
HETATM    2  C2  UNK   900      32.362 -50.040 -61.400  1.00  0.00     0.025 A 
HETATM    3  C3  UNK   900      30.921 -47.839 -61.167  1.00  0.00    -0.032 C 
HETATM    4  C4  UNK   900      31.915 -49.666 -62.788  1.00  0.00     0.021 A 
HETATM    5  C5  UNK   900      33.476 -47.684 -61.932  1.00  0.00    -0.013 C 
HETATM    6  C6  UNK   900      31.337 -47.074 -59.887  1.00  0.00     0.012 C 
HETATM    7  C7  UNK   900      33.736 -46.897 -60.614  1.00  0.00     0.126 C 
HETATM    8  C8  UNK   900      29.781 -48.842 -60.771  1.00  0.00     0.037 C 
HETATM    9  C9  UNK   900      31.421 -50.664 -60.454  1.00  0.00    -0.083 C 
HETATM   10  C10 UNK   900      32.519 -46.139 -60.095  1.00  0.00     0.033 C 
HETATM   11  C11 UNK   900      30.264 -46.873 -62.177  1.00  0.00     0.016 C 
HETATM   12  C12 UNK   900      33.359 -46.742 -63.154  1.00  0.00     0.018 C 
HETATM   13  C13 UNK   900      34.762 -48.522 -62.200  1.00  0.00     0.018 C 
HETATM   14  C14 UNK   900      30.233 -50.122 -60.144  1.00  0.00    -0.023 C 
HETATM   15  C15 UNK   900      31.849 -51.969 -59.844  1.00  0.00     0.043 C 
ENDROOT
BRANCH   7  16
HETATM   16  O1  UNK   900      34.805 -45.969 -60.794  1.00  0.00    -0.395 OA
HETATM   17  H24 UNK   900      35.636 -46.473 -60.798  1.00  0.00     0.210 HD
ENDBRANCH   7  16
TORSDOF 1
ENDMDL
