MODEL 1
REMARK VINA RESULT:      -6.8      0.000      0.000
REMARK  1 active torsions:
REMARK  status: ('A' for Active; 'I' for Inactive)
REMARK    1  A    between atoms: O1_1  and  C3_6 
ROOT
HETATM    1  O2  UNK   900      31.602 -46.507 -64.018  1.00  0.00    -0.316 OA
HETATM    2  O3  UNK   900      29.507 -47.454 -63.946  1.00  0.00    -0.264 OA
HETATM    3  C1  UNK   900      30.426 -48.618 -61.165  1.00  0.00     0.010 A 
HETATM    4  C2  UNK   900      30.915 -47.460 -62.009  1.00  0.00     0.084 A 
HETATM    5  C3  UNK   900      31.450 -49.240 -60.204  1.00  0.00     0.074 C 
HETATM    6  C4  UNK   900      29.937 -47.205 -60.895  1.00  0.00     0.039 A 
HETATM    7  C5  UNK   900      32.608 -48.302 -59.766  1.00  0.00     0.044 C 
HETATM    8  C6  UNK   900      32.187 -50.432 -60.847  1.00  0.00     0.048 C 
HETATM    9  C7  UNK   900      32.307 -47.055 -61.872  1.00  0.00    -0.040 C 
HETATM   10  C8  UNK   900      33.538 -50.565 -60.106  1.00  0.00    -0.044 C 
HETATM   11  C9  UNK   900      33.671 -49.284 -59.254  1.00  0.00     0.020 C 
HETATM   12  C10 UNK   900      29.414 -49.586 -61.732  1.00  0.00     0.020 C 
HETATM   13  C11 UNK   900      33.122 -47.416 -60.874  1.00  0.00    -0.013 C 
HETATM   14  C12 UNK   900      30.567 -47.168 -63.408  1.00  0.00     0.273 C 
HETATM   15  C13 UNK   900      32.686 -46.289 -63.088  1.00  0.00     0.214 C 
HETATM   16  C14 UNK   900      34.693 -50.679 -61.112  1.00  0.00     0.015 C 
HETATM   17  C15 UNK   900      33.548 -51.809 -59.206  1.00  0.00     0.015 C 
ENDROOT
BRANCH   5  18
HETATM   18  O1  UNK   900      30.771 -49.705 -59.036  1.00  0.00    -0.388 OA
HETATM   19  H14 UNK   900      29.870 -49.340 -59.052  1.00  0.00     0.210 HD
ENDBRANCH   5  18
TORSDOF 1
ENDMDL
MODEL 2
REMARK VINA RESULT:      -6.2     21.692     23.622
REMARK  1 active torsions:
REMARK  status: ('A' for Active; 'I' for Inactive)
REMARK    1  A    between atoms: O1_1  and  C3_6 
ROOT
HETATM    1  O2  UNK   900      20.416 -33.001 -45.006  1.00  0.00    -0.316 OA
HETATM    2  O3  UNK   900      18.927 -31.519 -45.943  1.00  0.00    -0.264 OA
HETATM    3  C1  UNK   900      20.729 -31.757 -48.518  1.00  0.00     0.010 A 
HETATM    4  C2  UNK   900      20.549 -32.640 -47.302  1.00  0.00     0.084 A 
HETATM    5  C3  UNK   900      22.073 -31.873 -49.251  1.00  0.00     0.074 C 
HETATM    6  C4  UNK   900      19.773 -32.938 -48.555  1.00  0.00     0.039 A 
HETATM    7  C5  UNK   900      22.817 -33.223 -49.068  1.00  0.00     0.044 C 
HETATM    8  C6  UNK   900      23.094 -30.836 -48.740  1.00  0.00     0.048 C 
HETATM    9  C7  UNK   900      21.662 -33.492 -46.906  1.00  0.00    -0.040 C 
HETATM   10  C8  UNK   900      24.496 -31.410 -49.049  1.00  0.00    -0.044 C 
HETATM   11  C9  UNK   900      24.259 -32.878 -49.467  1.00  0.00     0.020 C 
HETATM   12  C10 UNK   900      20.102 -30.382 -48.547  1.00  0.00     0.020 C 
HETATM   13  C11 UNK   900      22.721 -33.784 -47.670  1.00  0.00    -0.013 C 
HETATM   14  C12 UNK   900      19.863 -32.298 -46.046  1.00  0.00     0.273 C 
HETATM   15  C13 UNK   900      21.473 -33.865 -45.480  1.00  0.00     0.214 C 
HETATM   16  C14 UNK   900      25.394 -31.331 -47.806  1.00  0.00     0.015 C 
HETATM   17  C15 UNK   900      25.168 -30.632 -50.189  1.00  0.00     0.015 C 
ENDROOT
BRANCH   5  18
HETATM   18  O1  UNK   900      21.863 -31.651 -50.648  1.00  0.00    -0.388 OA
HETATM   19  H14 UNK   900      22.229 -30.777 -50.868  1.00  0.00     0.210 HD
ENDBRANCH   5  18
TORSDOF 1
ENDMDL
MODEL 3
REMARK VINA RESULT:      -5.7     22.104     23.541
REMARK  1 active torsions:
REMARK  status: ('A' for Active; 'I' for Inactive)
REMARK    1  A    between atoms: O1_1  and  C3_6 
ROOT
HETATM    1  O2  UNK   900      23.034 -27.121 -49.890  1.00  0.00    -0.316 OA
HETATM    2  O3  UNK   900      25.260 -27.412 -49.391  1.00  0.00    -0.264 OA
HETATM    3  C1  UNK   900      24.612 -30.493 -49.547  1.00  0.00     0.010 A 
HETATM    4  C2  UNK   900      23.916 -29.265 -50.095  1.00  0.00     0.084 A 
HETATM    5  C3  UNK   900      23.730 -31.727 -49.310  1.00  0.00     0.074 C 
HETATM    6  C4  UNK   900      24.861 -30.036 -50.975  1.00  0.00     0.039 A 
HETATM    7  C5  UNK   900      22.440 -31.798 -50.172  1.00  0.00     0.044 C 
HETATM    8  C6  UNK   900      23.192 -31.777 -47.867  1.00  0.00     0.048 C 
HETATM    9  C7  UNK   900      22.479 -29.337 -50.317  1.00  0.00    -0.040 C 
HETATM   10  C8  UNK   900      21.900 -32.626 -47.908  1.00  0.00    -0.044 C 
HETATM   11  C9  UNK   900      21.570 -32.805 -49.406  1.00  0.00     0.020 C 
HETATM   12  C10 UNK   900      25.762 -30.335 -48.579  1.00  0.00     0.020 C 
HETATM   13  C11 UNK   900      21.759 -30.464 -50.355  1.00  0.00    -0.013 C 
HETATM   14  C12 UNK   900      24.180 -27.861 -49.743  1.00  0.00     0.273 C 
HETATM   15  C13 UNK   900      21.949 -27.950 -50.363  1.00  0.00     0.214 C 
HETATM   16  C14 UNK   900      20.760 -31.902 -47.176  1.00  0.00     0.015 C 
HETATM   17  C15 UNK   900      22.120 -33.992 -47.242  1.00  0.00     0.015 C 
ENDROOT
BRANCH   5  18
HETATM   18  O1  UNK   900      24.504 -32.906 -49.546  1.00  0.00    -0.388 OA
HETATM   19  H14 UNK   900      25.431 -32.698 -49.339  1.00  0.00     0.210 HD
ENDBRANCH   5  18
TORSDOF 1
ENDMDL
MODEL 4
REMARK VINA RESULT:      -5.6     22.273     23.860
REMARK  1 active torsions:
REMARK  status: ('A' for Active; 'I' for Inactive)
REMARK    1  A    between atoms: O1_1  and  C3_6 
ROOT
HETATM    1  O2  UNK   900      20.824 -31.876 -44.502  1.00  0.00    -0.316 OA
HETATM    2  O3  UNK   900      19.279 -32.939 -45.834  1.00  0.00    -0.264 OA
HETATM    3  C1  UNK   900      21.583 -33.007 -47.984  1.00  0.00     0.010 A 
HETATM    4  C2  UNK   900      21.583 -32.842 -46.479  1.00  0.00     0.084 A 
HETATM    5  C3  UNK   900      22.782 -32.411 -48.735  1.00  0.00     0.074 C 
HETATM    6  C4  UNK   900      21.811 -34.203 -47.075  1.00  0.00     0.039 A 
HETATM    7  C5  UNK   900      24.083 -32.261 -47.900  1.00  0.00     0.044 C 
HETATM    8  C6  UNK   900      22.501 -30.972 -49.210  1.00  0.00     0.048 C 
HETATM    9  C7  UNK   900      22.686 -32.110 -45.873  1.00  0.00    -0.040 C 
HETATM   10  C8  UNK   900      23.877 -30.283 -49.367  1.00  0.00    -0.044 C 
HETATM   11  C9  UNK   900      24.896 -31.241 -48.710  1.00  0.00     0.020 C 
HETATM   12  C10 UNK   900      20.276 -32.977 -48.742  1.00  0.00     0.020 C 
HETATM   13  C11 UNK   900      23.843 -31.814 -46.479  1.00  0.00    -0.013 C 
HETATM   14  C12 UNK   900      20.425 -32.576 -45.612  1.00  0.00     0.273 C 
HETATM   15  C13 UNK   900      22.251 -31.648 -44.530  1.00  0.00     0.214 C 
HETATM   16  C14 UNK   900      23.876 -28.917 -48.665  1.00  0.00     0.015 C 
HETATM   17  C15 UNK   900      24.220 -30.073 -50.848  1.00  0.00     0.015 C 
ENDROOT
BRANCH   5  18
HETATM   18  O1  UNK   900      23.064 -33.219 -49.880  1.00  0.00    -0.388 OA
HETATM   19  H14 UNK   900      24.026 -33.207 -50.022  1.00  0.00     0.210 HD
ENDBRANCH   5  18
TORSDOF 1
ENDMDL
MODEL 5
REMARK VINA RESULT:      -5.6     12.509     13.932
REMARK  1 active torsions:
REMARK  status: ('A' for Active; 'I' for Inactive)
REMARK    1  A    between atoms: O1_1  and  C3_6 
ROOT
HETATM    1  O2  UNK   900      37.742 -33.988 -59.878  1.00  0.00    -0.316 OA
HETATM    2  O3  UNK   900      35.594 -33.724 -60.656  1.00  0.00    -0.264 OA
HETATM    3  C1  UNK   900      34.740 -35.178 -57.993  1.00  0.00     0.010 A 
HETATM    4  C2  UNK   900      35.996 -34.440 -58.407  1.00  0.00     0.084 A 
HETATM    5  C3  UNK   900      34.903 -36.231 -56.887  1.00  0.00     0.074 C 
HETATM    6  C4  UNK   900      34.928 -33.712 -57.638  1.00  0.00     0.039 A 
HETATM    7  C5  UNK   900      36.112 -36.018 -55.937  1.00  0.00     0.044 C 
HETATM    8  C6  UNK   900      35.156 -37.636 -57.470  1.00  0.00     0.048 C 
HETATM    9  C7  UNK   900      37.248 -34.807 -57.760  1.00  0.00    -0.040 C 
HETATM   10  C8  UNK   900      35.894 -38.440 -56.373  1.00  0.00    -0.044 C 
HETATM   11  C9  UNK   900      36.299 -37.403 -55.302  1.00  0.00     0.020 C 
HETATM   12  C10 UNK   900      33.680 -35.491 -59.023  1.00  0.00     0.020 C 
HETATM   13  C11 UNK   900      37.355 -35.528 -56.638  1.00  0.00    -0.013 C 
HETATM   14  C12 UNK   900      36.375 -34.020 -59.764  1.00  0.00     0.273 C 
HETATM   15  C13 UNK   900      38.366 -34.352 -58.626  1.00  0.00     0.214 C 
HETATM   16  C14 UNK   900      37.130 -39.137 -56.959  1.00  0.00     0.015 C 
HETATM   17  C15 UNK   900      34.973 -39.507 -55.763  1.00  0.00     0.015 C 
ENDROOT
BRANCH   5  18
HETATM   18  O1  UNK   900      33.707 -36.274 -56.105  1.00  0.00    -0.388 OA
HETATM   19  H14 UNK   900      33.468 -37.208 -55.980  1.00  0.00     0.210 HD
ENDBRANCH   5  18
TORSDOF 1
ENDMDL
MODEL 6
REMARK VINA RESULT:      -5.4     31.939     34.296
REMARK  1 active torsions:
REMARK  status: ('A' for Active; 'I' for Inactive)
REMARK    1  A    between atoms: O1_1  and  C3_6 
ROOT
HETATM    1  O2  UNK   900       4.052 -69.363 -47.201  1.00  0.00    -0.316 OA
HETATM    2  O3  UNK   900       5.976 -69.972 -46.097  1.00  0.00    -0.264 OA
HETATM    3  C1  UNK   900       7.379 -67.812 -47.914  1.00  0.00     0.010 A 
HETATM    4  C2  UNK   900       5.939 -68.033 -47.502  1.00  0.00     0.084 A 
HETATM    5  C3  UNK   900       7.602 -67.060 -49.234  1.00  0.00     0.074 C 
HETATM    6  C4  UNK   900       6.788 -67.059 -46.735  1.00  0.00     0.039 A 
HETATM    7  C5  UNK   900       6.443 -66.122 -49.669  1.00  0.00     0.044 C 
HETATM    8  C6  UNK   900       7.740 -68.026 -50.427  1.00  0.00     0.048 C 
HETATM    9  C7  UNK   900       4.892 -67.554 -48.394  1.00  0.00    -0.040 C 
HETATM   10  C8  UNK   900       7.340 -67.226 -51.689  1.00  0.00    -0.044 C 
HETATM   11  C9  UNK   900       6.712 -65.916 -51.167  1.00  0.00     0.020 C 
HETATM   12  C10 UNK   900       8.421 -68.859 -47.593  1.00  0.00     0.020 C 
HETATM   13  C11 UNK   900       5.070 -66.689 -49.400  1.00  0.00    -0.013 C 
HETATM   14  C12 UNK   900       5.372 -69.225 -46.851  1.00  0.00     0.273 C 
HETATM   15  C13 UNK   900       3.640 -68.286 -48.071  1.00  0.00     0.214 C 
HETATM   16  C14 UNK   900       6.332 -68.022 -52.531  1.00  0.00     0.015 C 
HETATM   17  C15 UNK   900       8.569 -66.921 -52.557  1.00  0.00     0.015 C 
ENDROOT
BRANCH   5  18
HETATM   18  O1  UNK   900       8.802 -66.288 -49.134  1.00  0.00    -0.388 OA
HETATM   19  H14 UNK   900       8.553 -65.386 -48.870  1.00  0.00     0.210 HD
ENDBRANCH   5  18
TORSDOF 1
ENDMDL
MODEL 7
REMARK VINA RESULT:      -5.1      2.360      3.922
REMARK  1 active torsions:
REMARK  status: ('A' for Active; 'I' for Inactive)
REMARK    1  A    between atoms: O1_1  and  C3_6 
ROOT
HETATM    1  O2  UNK   900      35.545 -44.551 -63.759  1.00  0.00    -0.316 OA
HETATM    2  O3  UNK   900      33.923 -44.698 -65.383  1.00  0.00    -0.264 OA
HETATM    3  C1  UNK   900      31.953 -45.239 -62.983  1.00  0.00     0.010 A 
HETATM    4  C2  UNK   900      33.324 -44.601 -63.067  1.00  0.00     0.084 A 
HETATM    5  C3  UNK   900      31.570 -45.854 -61.629  1.00  0.00     0.074 C 
HETATM    6  C4  UNK   900      32.098 -43.730 -63.084  1.00  0.00     0.039 A 
HETATM    7  C5  UNK   900      32.305 -45.261 -60.396  1.00  0.00     0.044 C 
HETATM    8  C6  UNK   900      31.923 -47.353 -61.562  1.00  0.00     0.048 C 
HETATM    9  C7  UNK   900      34.174 -44.652 -61.886  1.00  0.00    -0.040 C 
HETATM   10  C8  UNK   900      32.088 -47.699 -60.063  1.00  0.00    -0.044 C 
HETATM   11  C9  UNK   900      32.108 -46.343 -59.325  1.00  0.00     0.020 C 
HETATM   12  C10 UNK   900      31.377 -45.943 -64.190  1.00  0.00     0.020 C 
HETATM   13  C11 UNK   900      33.761 -44.953 -60.649  1.00  0.00    -0.013 C 
HETATM   14  C12 UNK   900      34.251 -44.631 -64.208  1.00  0.00     0.273 C 
HETATM   15  C13 UNK   900      35.579 -44.440 -62.320  1.00  0.00     0.214 C 
HETATM   16  C14 UNK   900      33.396 -48.470 -59.832  1.00  0.00     0.015 C 
HETATM   17  C15 UNK   900      30.917 -48.560 -59.568  1.00  0.00     0.015 C 
ENDROOT
BRANCH   5  18
HETATM   18  O1  UNK   900      30.161 -45.711 -61.434  1.00  0.00    -0.388 OA
HETATM   19  H14 UNK   900      30.007 -45.562 -60.485  1.00  0.00     0.210 HD
ENDBRANCH   5  18
TORSDOF 1
ENDMDL
MODEL 8
REMARK VINA RESULT:      -5.1     29.044     31.534
REMARK  1 active torsions:
REMARK  status: ('A' for Active; 'I' for Inactive)
REMARK    1  A    between atoms: O1_1  and  C3_6 
ROOT
HETATM    1  O2  UNK   900      23.796 -21.910 -72.237  1.00  0.00    -0.316 OA
HETATM    2  O3  UNK   900      23.745 -24.130 -72.837  1.00  0.00    -0.264 OA
HETATM    3  C1  UNK   900      25.131 -23.162 -75.498  1.00  0.00     0.010 A 
HETATM    4  C2  UNK   900      25.008 -22.550 -74.118  1.00  0.00     0.084 A 
HETATM    5  C3  UNK   900      25.342 -22.182 -76.661  1.00  0.00     0.074 C 
HETATM    6  C4  UNK   900      26.241 -23.332 -74.475  1.00  0.00     0.039 A 
HETATM    7  C5  UNK   900      25.987 -20.823 -76.278  1.00  0.00     0.044 C 
HETATM    8  C6  UNK   900      24.006 -21.768 -77.310  1.00  0.00     0.048 C 
HETATM    9  C7  UNK   900      25.063 -21.099 -74.008  1.00  0.00    -0.040 C 
HETATM   10  C8  UNK   900      24.251 -20.397 -77.984  1.00  0.00    -0.044 C 
HETATM   11  C9  UNK   900      25.628 -19.924 -77.470  1.00  0.00     0.020 C 
HETATM   12  C10 UNK   900      24.336 -24.400 -75.842  1.00  0.00     0.020 C 
HETATM   13  C11 UNK   900      25.495 -20.267 -74.963  1.00  0.00    -0.013 C 
HETATM   14  C12 UNK   900      24.122 -22.983 -73.027  1.00  0.00     0.273 C 
HETATM   15  C13 UNK   900      24.444 -20.710 -72.714  1.00  0.00     0.214 C 
HETATM   16  C14 UNK   900      23.147 -19.403 -77.594  1.00  0.00     0.015 C 
HETATM   17  C15 UNK   900      24.270 -20.534 -79.513  1.00  0.00     0.015 C 
ENDROOT
BRANCH   5  18
HETATM   18  O1  UNK   900      26.154 -22.809 -77.657  1.00  0.00    -0.388 OA
HETATM   19  H14 UNK   900      25.609 -23.479 -78.104  1.00  0.00     0.210 HD
ENDBRANCH   5  18
TORSDOF 1
ENDMDL
MODEL 9
REMARK VINA RESULT:      -5.1     28.451     31.009
REMARK  1 active torsions:
REMARK  status: ('A' for Active; 'I' for Inactive)
REMARK    1  A    between atoms: O1_1  and  C3_6 
ROOT
HETATM    1  O2  UNK   900      23.728 -22.460 -71.563  1.00  0.00    -0.316 OA
HETATM    2  O3  UNK   900      23.542 -24.224 -73.028  1.00  0.00    -0.264 OA
HETATM    3  C1  UNK   900      25.854 -22.791 -74.621  1.00  0.00     0.010 A 
HETATM    4  C2  UNK   900      25.379 -22.696 -73.186  1.00  0.00     0.084 A 
HETATM    5  C3  UNK   900      26.582 -21.560 -75.180  1.00  0.00     0.074 C 
HETATM    6  C4  UNK   900      26.528 -23.604 -73.528  1.00  0.00     0.039 A 
HETATM    7  C5  UNK   900      27.262 -20.651 -74.122  1.00  0.00     0.044 C 
HETATM    8  C6  UNK   900      25.612 -20.601 -75.898  1.00  0.00     0.048 C 
HETATM    9  C7  UNK   900      25.613 -21.450 -72.471  1.00  0.00    -0.040 C 
HETATM   10  C8  UNK   900      26.269 -19.201 -75.858  1.00  0.00    -0.044 C 
HETATM   11  C9  UNK   900      27.455 -19.328 -74.877  1.00  0.00     0.020 C 
HETATM   12  C10 UNK   900      25.040 -23.566 -75.631  1.00  0.00     0.020 C 
HETATM   13  C11 UNK   900      26.455 -20.484 -72.857  1.00  0.00    -0.013 C 
HETATM   14  C12 UNK   900      24.129 -23.231 -72.625  1.00  0.00     0.273 C 
HETATM   15  C13 UNK   900      24.670 -21.391 -71.325  1.00  0.00     0.214 C 
HETATM   16  C14 UNK   900      25.262 -18.150 -75.368  1.00  0.00     0.015 C 
HETATM   17  C15 UNK   900      26.768 -18.789 -77.250  1.00  0.00     0.015 C 
ENDROOT
BRANCH   5  18
HETATM   18  O1  UNK   900      27.571 -21.990 -76.119  1.00  0.00    -0.388 OA
HETATM   19  H14 UNK   900      28.408 -22.103 -75.636  1.00  0.00     0.210 HD
ENDBRANCH   5  18
TORSDOF 1
ENDMDL
