MODEL 1
REMARK VINA RESULT:      -6.1      0.000      0.000
REMARK  5 active torsions:
REMARK  status: ('A' for Active; 'I' for Inactive)
REMARK    1  A    between atoms: N1_6  and  C5_7 
REMARK    2  A    between atoms: C5_7  and  C6_8 
REMARK    3  A    between atoms: C13_17  and  C14_18 
REMARK    4  A    between atoms: C18_23  and  N2_24 
REMARK       I    between atoms: N2_24  and  C19_25 
REMARK    5  A    between atoms: C19_25  and  C20_27 
ROOT
HETATM    1  C1  UNK   900      47.920  -9.154  12.223  1.00  0.00     0.040 C 
HETATM    2  C2  UNK   900      47.219  -7.892  12.369  1.00  0.00     0.168 C 
HETATM    3  O1  UNK   900      48.212  -7.105  13.006  1.00  0.00    -0.219 OA
HETATM    4  C3  UNK   900      46.925  -7.142  11.241  1.00  0.00     0.018 C 
HETATM    5  C4  UNK   900      45.573  -7.002  10.686  1.00  0.00     0.049 C 
HETATM    6  N1  UNK   900      44.893  -6.846  11.889  1.00  0.00    -0.229 NA
HETATM    7  C13 UNK   900      44.678  -8.186  12.650  1.00  0.00     0.106 C 
HETATM    8  C18 UNK   900      46.156  -8.195  13.537  1.00  0.00     0.155 C 
ENDROOT
BRANCH   6   9
HETATM    9  C5  UNK   900      43.668  -6.175  11.738  1.00  0.00     0.051 C 
BRANCH   9  10
HETATM   10  C6  UNK   900      43.842  -4.728  11.568  1.00  0.00     0.014 C 
HETATM   11  C7  UNK   900      44.774  -4.120  12.400  1.00  0.00     0.003 C 
HETATM   12  C8  UNK   900      45.287  -2.874  12.062  1.00  0.00     0.026 C 
HETATM   13  C9  UNK   900      44.670  -2.139  11.057  1.00  0.00     0.119 C 
HETATM   14  C10 UNK   900      43.829  -2.832  10.197  1.00  0.00     0.119 C 
HETATM   15  O3  UNK   900      45.017  -0.942  10.445  1.00  0.00    -0.300 OA
HETATM   16  C11 UNK   900      43.787  -4.219  10.276  1.00  0.00     0.027 C 
HETATM   17  O2  UNK   900      43.335  -1.906   9.275  1.00  0.00    -0.300 OA
HETATM   18  C12 UNK   900      44.184  -0.768   9.306  1.00  0.00     0.304 C 
ENDBRANCH   9  10
ENDBRANCH   6   9
BRANCH   7  19
HETATM   19  C14 UNK   900      45.228  -9.197  11.524  1.00  0.00     0.091 C 
HETATM   20  C15 UNK   900      44.452  -9.363  10.377  1.00  0.00    -0.013 C 
HETATM   21  C16 UNK   900      44.748 -10.509   9.719  1.00  0.00     0.003 C 
HETATM   22  C17 UNK   900      44.794 -11.613  10.560  1.00  0.00     0.031 C 
HETATM   23  S1  UNK   900      45.114 -10.836  12.058  1.00  0.00    -0.108 SA
ENDBRANCH   7  19
BRANCH   8  24
HETATM   24  N2  UNK   900      46.038  -6.697  13.987  1.00  0.00    -0.232 NA
HETATM   25  C19 UNK   900      45.981  -6.625  15.410  1.00  0.00     0.275 C 
HETATM   26  O4  UNK   900      45.113  -7.315  16.011  1.00  0.00    -0.266 OA
BRANCH  25  27
HETATM   27  C20 UNK   900      46.805  -5.721  16.215  1.00  0.00     0.058 C 
HETATM   28  C21 UNK   900      46.302  -5.267  17.430  1.00  0.00     0.005 C 
HETATM   29  C22 UNK   900      46.868  -4.234  18.129  1.00  0.00     0.000 C 
HETATM   30  C23 UNK   900      47.725  -3.374  17.480  1.00  0.00     0.000 C 
HETATM   31  C24 UNK   900      48.030  -3.636  16.154  1.00  0.00     0.000 C 
HETATM   32  C25 UNK   900      47.532  -4.764  15.515  1.00  0.00     0.005 C 
ENDBRANCH  25  27
ENDBRANCH   8  24
TORSDOF 5
ENDMDL
MODEL 2
REMARK VINA RESULT:      -6.0      2.384      5.824
REMARK  5 active torsions:
REMARK  status: ('A' for Active; 'I' for Inactive)
REMARK    1  A    between atoms: N1_6  and  C5_7 
REMARK    2  A    between atoms: C5_7  and  C6_8 
REMARK    3  A    between atoms: C13_17  and  C14_18 
REMARK    4  A    between atoms: C18_23  and  N2_24 
REMARK       I    between atoms: N2_24  and  C19_25 
REMARK    5  A    between atoms: C19_25  and  C20_27 
ROOT
HETATM    1  C1  UNK   900      44.042  -7.221  11.377  1.00  0.00     0.040 C 
HETATM    2  C2  UNK   900      44.536  -6.412  12.476  1.00  0.00     0.168 C 
HETATM    3  O1  UNK   900      43.599  -5.348  12.469  1.00  0.00    -0.219 OA
HETATM    4  C3  UNK   900      44.432  -6.889  13.773  1.00  0.00     0.018 C 
HETATM    5  C4  UNK   900      45.576  -7.366  14.560  1.00  0.00     0.049 C 
HETATM    6  N1  UNK   900      46.479  -6.373  14.195  1.00  0.00    -0.229 NA
HETATM    7  C13 UNK   900      47.086  -6.584  12.778  1.00  0.00     0.106 C 
HETATM    8  C18 UNK   900      45.875  -5.754  11.876  1.00  0.00     0.155 C 
ENDROOT
BRANCH   6   9
HETATM    9  C5  UNK   900      47.506  -6.199  15.139  1.00  0.00     0.051 C 
BRANCH   9  10
HETATM   10  C6  UNK   900      47.220  -5.110  16.080  1.00  0.00     0.014 C 
HETATM   11  C7  UNK   900      46.420  -5.434  17.169  1.00  0.00     0.003 C 
HETATM   12  C8  UNK   900      46.418  -4.613  18.289  1.00  0.00     0.026 C 
HETATM   13  C9  UNK   900      46.997  -3.353  18.205  1.00  0.00     0.119 C 
HETATM   14  C10 UNK   900      47.869  -3.131  17.147  1.00  0.00     0.119 C 
HETATM   15  O3  UNK   900      47.235  -2.381  19.167  1.00  0.00    -0.300 OA
HETATM   16  C11 UNK   900      48.242  -4.207  16.350  1.00  0.00     0.027 C 
HETATM   17  O2  UNK   900      48.331  -1.818  17.267  1.00  0.00    -0.300 OA
HETATM   18  C12 UNK   900      48.083  -1.391  18.600  1.00  0.00     0.304 C 
ENDBRANCH   9  10
ENDBRANCH   6   9
BRANCH   7  19
HETATM   19  C14 UNK   900      46.469  -8.038  12.464  1.00  0.00     0.091 C 
HETATM   20  C15 UNK   900      46.973  -9.118  13.187  1.00  0.00    -0.013 C 
HETATM   21  C16 UNK   900      46.732 -10.303  12.577  1.00  0.00     0.003 C 
HETATM   22  C17 UNK   900      47.072 -10.289  11.230  1.00  0.00     0.031 C 
HETATM   23  S1  UNK   900      46.982  -8.604  10.914  1.00  0.00    -0.108 SA
ENDBRANCH   7  19
BRANCH   8  24
HETATM   24  N2  UNK   900      45.839  -4.511  12.831  1.00  0.00    -0.232 NA
HETATM   25  C19 UNK   900      46.130  -3.327  12.093  1.00  0.00     0.275 C 
HETATM   26  O4  UNK   900      47.184  -3.296  11.399  1.00  0.00    -0.266 OA
BRANCH  25  27
HETATM   27  C20 UNK   900      45.330  -2.102  12.166  1.00  0.00     0.058 C 
HETATM   28  C21 UNK   900      44.531  -1.763  11.079  1.00  0.00     0.005 C 
HETATM   29  C22 UNK   900      43.951  -0.530  10.938  1.00  0.00     0.000 C 
HETATM   30  C23 UNK   900      44.436   0.527  11.675  1.00  0.00     0.000 C 
HETATM   31  C24 UNK   900      45.453   0.278  12.583  1.00  0.00     0.000 C 
HETATM   32  C25 UNK   900      45.931  -1.011  12.784  1.00  0.00     0.005 C 
ENDBRANCH  25  27
ENDBRANCH   8  24
TORSDOF 5
ENDMDL
MODEL 3
REMARK VINA RESULT:      -5.9     17.456     20.136
REMARK  5 active torsions:
REMARK  status: ('A' for Active; 'I' for Inactive)
REMARK    1  A    between atoms: N1_6  and  C5_7 
REMARK    2  A    between atoms: C5_7  and  C6_8 
REMARK    3  A    between atoms: C13_17  and  C14_18 
REMARK    4  A    between atoms: C18_23  and  N2_24 
REMARK       I    between atoms: N2_24  and  C19_25 
REMARK    5  A    between atoms: C19_25  and  C20_27 
ROOT
HETATM    1  C1  UNK   900      28.850   4.068   6.639  1.00  0.00     0.040 C 
HETATM    2  C2  UNK   900      29.436   4.572   7.866  1.00  0.00     0.168 C 
HETATM    3  O1  UNK   900      28.280   5.029   8.548  1.00  0.00    -0.219 OA
HETATM    4  C3  UNK   900      29.983   3.681   8.776  1.00  0.00     0.018 C 
HETATM    5  C4  UNK   900      31.426   3.529   9.001  1.00  0.00     0.049 C 
HETATM    6  N1  UNK   900      31.761   4.879   8.977  1.00  0.00    -0.229 NA
HETATM    7  C13 UNK   900      31.825   5.472   7.540  1.00  0.00     0.106 C 
HETATM    8  C18 UNK   900      30.168   5.924   7.396  1.00  0.00     0.155 C 
ENDROOT
BRANCH   6   9
HETATM    9  C5  UNK   900      32.954   5.155   9.667  1.00  0.00     0.051 C 
BRANCH   9  10
HETATM   10  C6  UNK   900      32.727   5.946  10.881  1.00  0.00     0.014 C 
HETATM   11  C7  UNK   900      31.998   5.327  11.890  1.00  0.00     0.003 C 
HETATM   12  C8  UNK   900      32.066   5.819  13.187  1.00  0.00     0.026 C 
HETATM   13  C9  UNK   900      32.635   7.066  13.409  1.00  0.00     0.119 C 
HETATM   14  C10 UNK   900      33.437   7.580  12.398  1.00  0.00     0.119 C 
HETATM   15  O3  UNK   900      32.932   7.749  14.581  1.00  0.00    -0.300 OA
HETATM   16  C11 UNK   900      33.761   6.763  11.321  1.00  0.00     0.027 C 
HETATM   17  O2  UNK   900      33.903   8.821  12.838  1.00  0.00    -0.300 OA
HETATM   18  C12 UNK   900      33.740   8.871  14.248  1.00  0.00     0.304 C 
ENDBRANCH   9  10
ENDBRANCH   6   9
BRANCH   7  19
HETATM   19  C14 UNK   900      31.630   4.107   6.706  1.00  0.00     0.091 C 
HETATM   20  C15 UNK   900      32.675   3.185   6.734  1.00  0.00    -0.013 C 
HETATM   21  C16 UNK   900      32.619   2.313   5.699  1.00  0.00     0.003 C 
HETATM   22  C17 UNK   900      32.428   2.945   4.478  1.00  0.00     0.031 C 
HETATM   23  S1  UNK   900      31.702   4.409   5.006  1.00  0.00    -0.108 SA
ENDBRANCH   7  19
BRANCH   8  24
HETATM   24  N2  UNK   900      30.102   6.599   8.811  1.00  0.00    -0.232 NA
HETATM   25  C19 UNK   900      29.658   7.947   8.682  1.00  0.00     0.275 C 
HETATM   26  O4  UNK   900      30.270   8.706   7.882  1.00  0.00    -0.266 OA
BRANCH  25  27
HETATM   27  C20 UNK   900      28.593   8.537   9.496  1.00  0.00     0.058 C 
HETATM   28  C21 UNK   900      27.920   9.651   9.006  1.00  0.00     0.005 C 
HETATM   29  C22 UNK   900      27.099  10.425   9.784  1.00  0.00     0.000 C 
HETATM   30  C23 UNK   900      27.200  10.344  11.154  1.00  0.00     0.000 C 
HETATM   31  C24 UNK   900      28.089   9.426  11.689  1.00  0.00     0.000 C 
HETATM   32  C25 UNK   900      28.817   8.573  10.869  1.00  0.00     0.005 C 
ENDBRANCH  25  27
ENDBRANCH   8  24
TORSDOF 5
ENDMDL
MODEL 4
REMARK VINA RESULT:      -5.9     16.982     18.818
REMARK  5 active torsions:
REMARK  status: ('A' for Active; 'I' for Inactive)
REMARK    1  A    between atoms: N1_6  and  C5_7 
REMARK    2  A    between atoms: C5_7  and  C6_8 
REMARK    3  A    between atoms: C13_17  and  C14_18 
REMARK    4  A    between atoms: C18_23  and  N2_24 
REMARK       I    between atoms: N2_24  and  C19_25 
REMARK    5  A    between atoms: C19_25  and  C20_27 
ROOT
HETATM    1  C1  UNK   900      30.780   3.682   5.149  1.00  0.00     0.040 C 
HETATM    2  C2  UNK   900      30.806   4.441   6.385  1.00  0.00     0.168 C 
HETATM    3  O1  UNK   900      30.856   5.767   5.885  1.00  0.00    -0.219 OA
HETATM    4  C3  UNK   900      29.678   4.472   7.190  1.00  0.00     0.018 C 
HETATM    5  C4  UNK   900      29.573   3.763   8.472  1.00  0.00     0.049 C 
HETATM    6  N1  UNK   900      30.845   4.057   8.951  1.00  0.00    -0.229 NA
HETATM    7  C13 UNK   900      31.960   3.182   8.310  1.00  0.00     0.106 C 
HETATM    8  C18 UNK   900      32.290   4.182   6.945  1.00  0.00     0.155 C 
ENDROOT
BRANCH   6   9
HETATM    9  C5  UNK   900      30.926   3.992  10.352  1.00  0.00     0.051 C 
BRANCH   9  10
HETATM   10  C6  UNK   900      31.396   5.250  10.944  1.00  0.00     0.014 C 
HETATM   11  C7  UNK   900      32.760   5.339  11.192  1.00  0.00     0.003 C 
HETATM   12  C8  UNK   900      33.346   6.586  11.371  1.00  0.00     0.026 C 
HETATM   13  C9  UNK   900      32.531   7.693  11.569  1.00  0.00     0.119 C 
HETATM   14  C10 UNK   900      31.197   7.566  11.202  1.00  0.00     0.119 C 
HETATM   15  O3  UNK   900      32.822   9.048  11.664  1.00  0.00    -0.300 OA
HETATM   16  C11 UNK   900      30.799   6.427  10.512  1.00  0.00     0.027 C 
HETATM   17  O2  UNK   900      30.580   8.788  11.478  1.00  0.00    -0.300 OA
HETATM   18  C12 UNK   900      31.599   9.770  11.607  1.00  0.00     0.304 C 
ENDBRANCH   9  10
ENDBRANCH   6   9
BRANCH   7  19
HETATM   19  C14 UNK   900      31.025   2.172   7.472  1.00  0.00     0.091 C 
HETATM   20  C15 UNK   900      30.298   1.226   8.193  1.00  0.00    -0.013 C 
HETATM   21  C16 UNK   900      29.907   0.183   7.423  1.00  0.00     0.003 C 
HETATM   22  C17 UNK   900      30.944  -0.334   6.656  1.00  0.00     0.031 C 
HETATM   23  S1  UNK   900      31.981   1.033   6.593  1.00  0.00    -0.108 SA
ENDBRANCH   7  19
BRANCH   8  24
HETATM   24  N2  UNK   900      32.343   5.511   7.776  1.00  0.00    -0.232 NA
HETATM   25  C19 UNK   900      33.611   6.138   7.603  1.00  0.00     0.275 C 
HETATM   26  O4  UNK   900      34.651   5.460   7.827  1.00  0.00    -0.266 OA
BRANCH  25  27
HETATM   27  C20 UNK   900      33.782   7.555   7.276  1.00  0.00     0.058 C 
HETATM   28  C21 UNK   900      35.007   7.977   6.768  1.00  0.00     0.005 C 
HETATM   29  C22 UNK   900      35.356   9.299   6.672  1.00  0.00     0.000 C 
HETATM   30  C23 UNK   900      34.663  10.231   7.411  1.00  0.00     0.000 C 
HETATM   31  C24 UNK   900      33.591   9.794   8.172  1.00  0.00     0.000 C 
HETATM   32  C25 UNK   900      33.192   8.464   8.148  1.00  0.00     0.005 C 
ENDBRANCH  25  27
ENDBRANCH   8  24
TORSDOF 5
ENDMDL
MODEL 5
REMARK VINA RESULT:      -5.7     17.370     19.785
REMARK  5 active torsions:
REMARK  status: ('A' for Active; 'I' for Inactive)
REMARK    1  A    between atoms: N1_6  and  C5_7 
REMARK    2  A    between atoms: C5_7  and  C6_8 
REMARK    3  A    between atoms: C13_17  and  C14_18 
REMARK    4  A    between atoms: C18_23  and  N2_24 
REMARK       I    between atoms: N2_24  and  C19_25 
REMARK    5  A    between atoms: C19_25  and  C20_27 
ROOT
HETATM    1  C1  UNK   900      33.854   4.741   7.615  1.00  0.00     0.040 C 
HETATM    2  C2  UNK   900      33.026   5.843   8.065  1.00  0.00     0.168 C 
HETATM    3  O1  UNK   900      33.939   6.548   8.890  1.00  0.00    -0.219 OA
HETATM    4  C3  UNK   900      32.636   6.817   7.158  1.00  0.00     0.018 C 
HETATM    5  C4  UNK   900      31.268   6.946   6.641  1.00  0.00     0.049 C 
HETATM    6  N1  UNK   900      30.595   6.722   7.837  1.00  0.00    -0.229 NA
HETATM    7  C13 UNK   900      30.535   5.219   8.236  1.00  0.00     0.106 C 
HETATM    8  C18 UNK   900      32.019   5.146   9.108  1.00  0.00     0.155 C 
ENDROOT
BRANCH   6   9
HETATM    9  C5  UNK   900      29.303   7.275   7.846  1.00  0.00     0.051 C 
BRANCH   9  10
HETATM   10  C6  UNK   900      29.123   8.258   8.921  1.00  0.00     0.014 C 
HETATM   11  C7  UNK   900      28.493   7.799  10.072  1.00  0.00     0.003 C 
HETATM   12  C8  UNK   900      28.627   8.511  11.257  1.00  0.00     0.026 C 
HETATM   13  C9  UNK   900      29.153   9.796  11.219  1.00  0.00     0.119 C 
HETATM   14  C10 UNK   900      29.860  10.152  10.079  1.00  0.00     0.119 C 
HETATM   15  O3  UNK   900      29.497  10.681  12.232  1.00  0.00    -0.300 OA
HETATM   16  C11 UNK   900      30.147   9.172   9.136  1.00  0.00     0.027 C 
HETATM   17  O2  UNK   900      30.298  11.465  10.264  1.00  0.00    -0.300 OA
HETATM   18  C12 UNK   900      30.229  11.754  11.654  1.00  0.00     0.304 C 
ENDBRANCH   9  10
ENDBRANCH   6   9
BRANCH   7  19
HETATM   19  C14 UNK   900      31.171   4.587   6.898  1.00  0.00     0.091 C 
HETATM   20  C15 UNK   900      30.397   4.629   5.738  1.00  0.00    -0.013 C 
HETATM   21  C16 UNK   900      30.803   3.723   4.818  1.00  0.00     0.003 C 
HETATM   22  C17 UNK   900      30.984   2.456   5.357  1.00  0.00     0.031 C 
HETATM   23  S1  UNK   900      31.244   2.865   7.004  1.00  0.00    -0.108 SA
ENDBRANCH   7  19
BRANCH   8  24
HETATM   24  N2  UNK   900      31.751   6.462   9.918  1.00  0.00    -0.232 NA
HETATM   25  C19 UNK   900      31.872   6.201  11.314  1.00  0.00     0.275 C 
HETATM   26  O4  UNK   900      31.197   5.257  11.809  1.00  0.00    -0.266 OA
BRANCH  25  27
HETATM   27  C20 UNK   900      32.658   7.027  12.233  1.00  0.00     0.058 C 
HETATM   28  C21 UNK   900      32.647   6.709  13.588  1.00  0.00     0.005 C 
HETATM   29  C22 UNK   900      33.131   7.553  14.553  1.00  0.00     0.000 C 
HETATM   30  C23 UNK   900      33.301   8.886  14.254  1.00  0.00     0.000 C 
HETATM   31  C24 UNK   900      33.039   9.303  12.959  1.00  0.00     0.000 C 
HETATM   32  C25 UNK   900      32.669   8.394  11.976  1.00  0.00     0.005 C 
ENDBRANCH  25  27
ENDBRANCH   8  24
TORSDOF 5
ENDMDL
MODEL 6
REMARK VINA RESULT:      -5.6     15.383     19.181
REMARK  5 active torsions:
REMARK  status: ('A' for Active; 'I' for Inactive)
REMARK    1  A    between atoms: N1_6  and  C5_7 
REMARK    2  A    between atoms: C5_7  and  C6_8 
REMARK    3  A    between atoms: C13_17  and  C14_18 
REMARK    4  A    between atoms: C18_23  and  N2_24 
REMARK       I    between atoms: N2_24  and  C19_25 
REMARK    5  A    between atoms: C19_25  and  C20_27 
ROOT
HETATM    1  C1  UNK   900      47.314   5.746  30.079  1.00  0.00     0.040 C 
HETATM    2  C2  UNK   900      46.325   4.829  29.546  1.00  0.00     0.168 C 
HETATM    3  O1  UNK   900      45.142   5.331  30.147  1.00  0.00    -0.219 OA
HETATM    4  C3  UNK   900      46.012   4.873  28.197  1.00  0.00     0.018 C 
HETATM    5  C4  UNK   900      46.427   3.847  27.231  1.00  0.00     0.049 C 
HETATM    6  N1  UNK   900      46.176   2.733  28.024  1.00  0.00    -0.229 NA
HETATM    7  C13 UNK   900      47.276   2.481  29.096  1.00  0.00     0.106 C 
HETATM    8  C18 UNK   900      46.618   3.466  30.347  1.00  0.00     0.155 C 
ENDROOT
BRANCH   6   9
HETATM    9  C5  UNK   900      45.961   1.567  27.270  1.00  0.00     0.051 C 
BRANCH   9  10
HETATM   10  C6  UNK   900      44.570   1.442  26.819  1.00  0.00     0.014 C 
HETATM   11  C7  UNK   900      44.366   1.472  25.445  1.00  0.00     0.003 C 
HETATM   12  C8  UNK   900      43.180   0.978  24.916  1.00  0.00     0.026 C 
HETATM   13  C9  UNK   900      42.116   0.716  25.770  1.00  0.00     0.119 C 
HETATM   14  C10 UNK   900      42.409   0.598  27.122  1.00  0.00     0.119 C 
HETATM   15  O3  UNK   900      40.878   0.130  25.546  1.00  0.00    -0.300 OA
HETATM   16  C11 UNK   900      43.742   0.573  27.518  1.00  0.00     0.027 C 
HETATM   17  O2  UNK   900      41.206   0.329  27.778  1.00  0.00    -0.300 OA
HETATM   18  C12 UNK   900      40.275  -0.130  26.808  1.00  0.00     0.304 C 
ENDBRANCH   9  10
ENDBRANCH   6   9
BRANCH   7  19
HETATM   19  C14 UNK   900      48.333   3.603  28.628  1.00  0.00     0.091 C 
HETATM   20  C15 UNK   900      49.015   3.382  27.432  1.00  0.00    -0.013 C 
HETATM   21  C16 UNK   900      50.149   4.116  27.345  1.00  0.00     0.003 C 
HETATM   22  C17 UNK   900      50.931   4.030  28.489  1.00  0.00     0.031 C 
HETATM   23  S1  UNK   900      49.733   3.590  29.639  1.00  0.00    -0.108 SA
ENDBRANCH   7  19
BRANCH   8  24
HETATM   24  N2  UNK   900      45.159   2.912  30.185  1.00  0.00    -0.232 NA
HETATM   25  C19 UNK   900      44.670   2.465  31.447  1.00  0.00     0.275 C 
HETATM   26  O4  UNK   900      45.365   1.639  32.101  1.00  0.00    -0.266 OA
BRANCH  25  27
HETATM   27  C20 UNK   900      43.361   2.830  31.991  1.00  0.00     0.058 C 
HETATM   28  C21 UNK   900      42.798   2.020  32.972  1.00  0.00     0.005 C 
HETATM   29  C22 UNK   900      41.487   2.121  33.359  1.00  0.00     0.000 C 
HETATM   30  C23 UNK   900      40.594   2.770  32.537  1.00  0.00     0.000 C 
HETATM   31  C24 UNK   900      41.080   3.356  31.379  1.00  0.00     0.000 C 
HETATM   32  C25 UNK   900      42.437   3.337  31.083  1.00  0.00     0.005 C 
ENDBRANCH  25  27
ENDBRANCH   8  24
TORSDOF 5
ENDMDL
MODEL 7
REMARK VINA RESULT:      -5.5     14.520     17.623
REMARK  5 active torsions:
REMARK  status: ('A' for Active; 'I' for Inactive)
REMARK    1  A    between atoms: N1_6  and  C5_7 
REMARK    2  A    between atoms: C5_7  and  C6_8 
REMARK    3  A    between atoms: C13_17  and  C14_18 
REMARK    4  A    between atoms: C18_23  and  N2_24 
REMARK       I    between atoms: N2_24  and  C19_25 
REMARK    5  A    between atoms: C19_25  and  C20_27 
ROOT
HETATM    1  C1  UNK   900      31.882   5.431   3.464  1.00  0.00     0.040 C 
HETATM    2  C2  UNK   900      32.347   4.232   4.136  1.00  0.00     0.168 C 
HETATM    3  O1  UNK   900      31.269   3.987   5.025  1.00  0.00    -0.219 OA
HETATM    4  C3  UNK   900      32.423   3.041   3.430  1.00  0.00     0.018 C 
HETATM    5  C4  UNK   900      33.688   2.424   3.009  1.00  0.00     0.049 C 
HETATM    6  N1  UNK   900      34.403   2.650   4.180  1.00  0.00    -0.229 NA
HETATM    7  C13 UNK   900      34.911   4.114   4.317  1.00  0.00     0.106 C 
HETATM    8  C18 UNK   900      33.521   4.776   5.091  1.00  0.00     0.155 C 
ENDROOT
BRANCH   6   9
HETATM    9  C5  UNK   900      35.471   1.752   4.346  1.00  0.00     0.051 C 
BRANCH   9  10
HETATM   10  C6  UNK   900      35.014   0.389   4.639  1.00  0.00     0.014 C 
HETATM   11  C7  UNK   900      35.705  -0.639   4.008  1.00  0.00     0.003 C 
HETATM   12  C8  UNK   900      35.618  -1.932   4.507  1.00  0.00     0.026 C 
HETATM   13  C9  UNK   900      34.642  -2.229   5.450  1.00  0.00     0.119 C 
HETATM   14  C10 UNK   900      34.065  -1.157   6.117  1.00  0.00     0.119 C 
HETATM   15  O3  UNK   900      34.393  -3.378   6.189  1.00  0.00    -0.300 OA
HETATM   16  C11 UNK   900      34.606   0.111   5.938  1.00  0.00     0.027 C 
HETATM   17  O2  UNK   900      33.132  -1.687   7.011  1.00  0.00    -0.300 OA
HETATM   18  C12 UNK   900      33.436  -3.063   7.192  1.00  0.00     0.304 C 
ENDBRANCH   9  10
ENDBRANCH   6   9
BRANCH   7  19
HETATM   19  C14 UNK   900      34.485   4.656   2.861  1.00  0.00     0.091 C 
HETATM   20  C15 UNK   900      35.208   4.186   1.765  1.00  0.00    -0.013 C 
HETATM   21  C16 UNK   900      35.084   4.992   0.684  1.00  0.00     0.003 C 
HETATM   22  C17 UNK   900      35.289   6.331   0.990  1.00  0.00     0.031 C 
HETATM   23  S1  UNK   900      34.925   6.316   2.668  1.00  0.00    -0.108 SA
ENDBRANCH   7  19
BRANCH   8  24
HETATM   24  N2  UNK   900      33.388   3.606   6.127  1.00  0.00    -0.232 NA
HETATM   25  C19 UNK   900      33.418   4.131   7.452  1.00  0.00     0.275 C 
HETATM   26  O4  UNK   900      34.380   4.878   7.780  1.00  0.00    -0.266 OA
BRANCH  25  27
HETATM   27  C20 UNK   900      32.450   3.776   8.492  1.00  0.00     0.058 C 
HETATM   28  C21 UNK   900      31.482   2.819   8.202  1.00  0.00     0.005 C 
HETATM   29  C22 UNK   900      30.388   2.603   8.998  1.00  0.00     0.000 C 
HETATM   30  C23 UNK   900      30.019   3.569   9.907  1.00  0.00     0.000 C 
HETATM   31  C24 UNK   900      30.817   4.695  10.023  1.00  0.00     0.000 C 
HETATM   32  C25 UNK   900      31.987   4.822   9.284  1.00  0.00     0.005 C 
ENDBRANCH  25  27
ENDBRANCH   8  24
TORSDOF 5
ENDMDL
MODEL 8
REMARK VINA RESULT:      -5.4     25.475     27.680
REMARK  5 active torsions:
REMARK  status: ('A' for Active; 'I' for Inactive)
REMARK    1  A    between atoms: N1_6  and  C5_7 
REMARK    2  A    between atoms: C5_7  and  C6_8 
REMARK    3  A    between atoms: C13_17  and  C14_18 
REMARK    4  A    between atoms: C18_23  and  N2_24 
REMARK       I    between atoms: N2_24  and  C19_25 
REMARK    5  A    between atoms: C19_25  and  C20_27 
ROOT
HETATM    1  C1  UNK   900      18.989   3.787  12.311  1.00  0.00     0.040 C 
HETATM    2  C2  UNK   900      19.251   3.635  13.730  1.00  0.00     0.168 C 
HETATM    3  O1  UNK   900      18.451   4.677  14.264  1.00  0.00    -0.219 OA
HETATM    4  C3  UNK   900      18.769   2.520  14.397  1.00  0.00     0.018 C 
HETATM    5  C4  UNK   900      19.619   1.416  14.858  1.00  0.00     0.049 C 
HETATM    6  N1  UNK   900      20.673   2.183  15.343  1.00  0.00    -0.229 NA
HETATM    7  C13 UNK   900      21.607   2.723  14.222  1.00  0.00     0.106 C 
HETATM    8  C18 UNK   900      20.755   4.183  13.887  1.00  0.00     0.155 C 
ENDROOT
BRANCH   6   9
HETATM    9  C5  UNK   900      21.429   1.512  16.319  1.00  0.00     0.051 C 
BRANCH   9  10
HETATM   10  C6  UNK   900      20.851   1.644  17.662  1.00  0.00     0.014 C 
HETATM   11  C7  UNK   900      20.791   0.481  18.421  1.00  0.00     0.003 C 
HETATM   12  C8  UNK   900      20.638   0.567  19.799  1.00  0.00     0.026 C 
HETATM   13  C9  UNK   900      20.279   1.784  20.364  1.00  0.00     0.119 C 
HETATM   14  C10 UNK   900      20.462   2.919  19.585  1.00  0.00     0.119 C 
HETATM   15  O3  UNK   900      20.164   2.187  21.688  1.00  0.00    -0.300 OA
HETATM   16  C11 UNK   900      21.142   2.798  18.378  1.00  0.00     0.027 C 
HETATM   17  O2  UNK   900      20.048   4.011  20.350  1.00  0.00    -0.300 OA
HETATM   18  C12 UNK   900      20.017   3.601  21.711  1.00  0.00     0.304 C 
ENDBRANCH   9  10
ENDBRANCH   6   9
BRANCH   7  19
HETATM   19  C14 UNK   900      20.962   1.940  12.971  1.00  0.00     0.091 C 
HETATM   20  C15 UNK   900      21.173   0.563  12.899  1.00  0.00    -0.013 C 
HETATM   21  C16 UNK   900      20.988   0.080  11.648  1.00  0.00     0.003 C 
HETATM   22  C17 UNK   900      21.653   0.826  10.683  1.00  0.00     0.031 C 
HETATM   23  S1  UNK   900      21.794   2.326  11.507  1.00  0.00    -0.108 SA
ENDBRANCH   7  19
BRANCH   8  24
HETATM   24  N2  UNK   900      20.586   4.576  15.396  1.00  0.00    -0.232 NA
HETATM   25  C19 UNK   900      21.092   5.891  15.612  1.00  0.00     0.275 C 
HETATM   26  O4  UNK   900      22.269   6.150  15.238  1.00  0.00    -0.266 OA
BRANCH  25  27
HETATM   27  C20 UNK   900      20.363   6.937  16.332  1.00  0.00     0.058 C 
HETATM   28  C21 UNK   900      20.044   8.111  15.656  1.00  0.00     0.005 C 
HETATM   29  C22 UNK   900      19.600   9.239  16.295  1.00  0.00     0.000 C 
HETATM   30  C23 UNK   900      19.806   9.368  17.650  1.00  0.00     0.000 C 
HETATM   31  C24 UNK   900      20.397   8.311  18.323  1.00  0.00     0.000 C 
HETATM   32  C25 UNK   900      20.722   7.134  17.661  1.00  0.00     0.005 C 
ENDBRANCH  25  27
ENDBRANCH   8  24
TORSDOF 5
ENDMDL
MODEL 9
REMARK VINA RESULT:      -5.3     23.993     25.662
REMARK  5 active torsions:
REMARK  status: ('A' for Active; 'I' for Inactive)
REMARK    1  A    between atoms: N1_6  and  C5_7 
REMARK    2  A    between atoms: C5_7  and  C6_8 
REMARK    3  A    between atoms: C13_17  and  C14_18 
REMARK    4  A    between atoms: C18_23  and  N2_24 
REMARK       I    between atoms: N2_24  and  C19_25 
REMARK    5  A    between atoms: C19_25  and  C20_27 
ROOT
HETATM    1  C1  UNK   900      30.194  -3.975  34.920  1.00  0.00     0.040 C 
HETATM    2  C2  UNK   900      31.162  -5.041  35.095  1.00  0.00     0.168 C 
HETATM    3  O1  UNK   900      31.812  -4.622  36.284  1.00  0.00    -0.219 OA
HETATM    4  C3  UNK   900      30.722  -6.312  35.433  1.00  0.00     0.018 C 
HETATM    5  C4  UNK   900      30.720  -7.447  34.501  1.00  0.00     0.049 C 
HETATM    6  N1  UNK   900      31.960  -7.212  33.919  1.00  0.00    -0.229 NA
HETATM    7  C13 UNK   900      31.938  -6.067  32.867  1.00  0.00     0.106 C 
HETATM    8  C18 UNK   900      32.242  -4.753  33.940  1.00  0.00     0.155 C 
ENDROOT
BRANCH   6   9
HETATM    9  C5  UNK   900      32.526  -8.370  33.360  1.00  0.00     0.051 C 
BRANCH   9  10
HETATM   10  C6  UNK   900      33.764  -8.772  34.039  1.00  0.00     0.014 C 
HETATM   11  C7  UNK   900      33.683  -8.930  35.417  1.00  0.00     0.003 C 
HETATM   12  C8  UNK   900      34.655  -9.668  36.081  1.00  0.00     0.026 C 
HETATM   13  C9  UNK   900      35.825 -10.003  35.411  1.00  0.00     0.119 C 
HETATM   14  C10 UNK   900      35.802  -9.920  34.025  1.00  0.00     0.119 C 
HETATM   15  O3  UNK   900      36.898 -10.806  35.774  1.00  0.00    -0.300 OA
HETATM   16  C11 UNK   900      34.589  -9.681  33.389  1.00  0.00     0.027 C 
HETATM   17  O2  UNK   900      37.065 -10.307  33.572  1.00  0.00    -0.300 OA
HETATM   18  C12 UNK   900      37.704 -11.018  34.623  1.00  0.00     0.304 C 
ENDBRANCH   9  10
ENDBRANCH   6   9
BRANCH   7  19
HETATM   19  C14 UNK   900      30.350  -5.802  32.828  1.00  0.00     0.091 C 
HETATM   20  C15 UNK   900      29.549  -6.789  32.255  1.00  0.00    -0.013 C 
HETATM   21  C16 UNK   900      28.339  -6.314  31.878  1.00  0.00     0.003 C 
HETATM   22  C17 UNK   900      28.431  -5.136  31.148  1.00  0.00     0.031 C 
HETATM   23  S1  UNK   900      29.958  -4.567  31.686  1.00  0.00    -0.108 SA
ENDBRANCH   7  19
BRANCH   8  24
HETATM   24  N2  UNK   900      33.418  -5.473  34.687  1.00  0.00    -0.232 NA
HETATM   25  C19 UNK   900      34.574  -4.640  34.683  1.00  0.00     0.275 C 
HETATM   26  O4  UNK   900      34.988  -4.193  33.578  1.00  0.00    -0.266 OA
BRANCH  25  27
HETATM   27  C20 UNK   900      35.374  -4.348  35.874  1.00  0.00     0.058 C 
HETATM   28  C21 UNK   900      35.350  -3.057  36.392  1.00  0.00     0.005 C 
HETATM   29  C22 UNK   900      36.244  -2.617  37.333  1.00  0.00     0.000 C 
HETATM   30  C23 UNK   900      37.415  -3.314  37.523  1.00  0.00     0.000 C 
HETATM   31  C24 UNK   900      37.606  -4.479  36.797  1.00  0.00     0.000 C 
HETATM   32  C25 UNK   900      36.622  -4.958  35.942  1.00  0.00     0.005 C 
ENDBRANCH  25  27
ENDBRANCH   8  24
TORSDOF 5
ENDMDL
