MODEL 1
REMARK VINA RESULT:      -6.1      0.000      0.000
REMARK  9 active torsions:
REMARK  status: ('A' for Active; 'I' for Inactive)
REMARK    1  A    between atoms: O1_2  and  C2_3 
REMARK    2  A    between atoms: C8_9  and  C9_10 
REMARK    3  A    between atoms: C9_10  and  C10_12 
REMARK    4  A    between atoms: C10_12  and  C11_13 
REMARK    5  A    between atoms: C11_13  and  C12_14 
REMARK    6  A    between atoms: C12_14  and  C13_15 
REMARK    7  A    between atoms: C18_21  and  O4_22 
REMARK    8  A    between atoms: O4_22  and  C19_23 
REMARK    9  A    between atoms: C20_25  and  C21_26 
ROOT
HETATM    1  C2  UNK   900      33.023   7.441  12.254  1.00  0.00     0.096 C 
HETATM    2  C3  UNK   900      33.717   6.821  11.224  1.00  0.00     0.024 C 
HETATM    3  C4  UNK   900      33.164   6.669   9.950  1.00  0.00     0.005 C 
HETATM    4  C5  UNK   900      33.595   5.640   9.111  1.00  0.00    -0.004 C 
HETATM    5  C6  UNK   900      32.700   4.771   8.498  1.00  0.00    -0.017 C 
HETATM    6  C7  UNK   900      33.123   3.459   7.919  1.00  0.00     0.031 C 
HETATM    7  C8  UNK   900      31.339   4.874   8.775  1.00  0.00     0.056 C 
HETATM    8  C16 UNK   900      30.951   6.173   9.093  1.00  0.00     0.135 C 
HETATM    9  O3  UNK   900      29.581   6.403   9.079  1.00  0.00    -0.190 OA
HETATM   10  C17 UNK   900      31.842   7.052   9.720  1.00  0.00     0.048 C 
HETATM   11  C18 UNK   900      31.340   7.985  10.624  1.00  0.00     0.101 C 
HETATM   12  C25 UNK   900      31.932   8.204  11.863  1.00  0.00     0.049 C 
ENDROOT
BRANCH  11  13
HETATM   13  O4  UNK   900      29.988   8.278  10.523  1.00  0.00    -0.303 OA
BRANCH  13  14
HETATM   14  C19 UNK   900      29.601   9.592  11.244  1.00  0.00     0.274 C 
HETATM   15  O5  UNK   900      29.525  10.303   9.921  1.00  0.00    -0.326 OA
HETATM   16  C20 UNK   900      29.496  11.718  10.421  1.00  0.00     0.184 C 
HETATM   17  C22 UNK   900      27.812  11.861  10.687  1.00  0.00     0.215 C 
HETATM   18  O7  UNK   900      27.424  11.262   9.349  1.00  0.00    -0.218 OA
HETATM   19  C23 UNK   900      27.245  10.599  11.663  1.00  0.00     0.220 C 
HETATM   20  O8  UNK   900      28.148  10.812  12.857  1.00  0.00    -0.218 OA
HETATM   21  C24 UNK   900      27.952   9.126  11.206  1.00  0.00     0.241 C 
HETATM   22  O9  UNK   900      27.686   9.183   9.734  1.00  0.00    -0.215 OA
BRANCH  16  23
HETATM   23  C21 UNK   900      29.975  11.519  11.971  1.00  0.00     0.214 C 
HETATM   24  O6  UNK   900      30.869  12.414  12.343  1.00  0.00    -0.218 OA
ENDBRANCH  16  23
ENDBRANCH  13  14
ENDBRANCH  11  13
BRANCH   1  25
HETATM   25  O1  UNK   900      33.034   6.947  13.559  1.00  0.00    -0.328 OA
HETATM   26  C1  UNK   900      33.214   7.353  14.444  1.00  0.00     0.181 C 
ENDBRANCH   1  25
BRANCH   7  27
HETATM   27  C9  UNK   900      30.532   3.693   9.119  1.00  0.00     0.175 C 
HETATM   28  O2  UNK   900      30.201   3.630  10.345  1.00  0.00    -0.291 OA
BRANCH  27  29
HETATM   29  C10 UNK   900      29.398   3.275   8.234  1.00  0.00     0.069 C 
BRANCH  29  30
HETATM   30  C11 UNK   900      29.764   2.062   7.451  1.00  0.00     0.008 C 
BRANCH  30  31
HETATM   31  C12 UNK   900      30.420   0.957   8.174  1.00  0.00     0.001 C 
BRANCH  31  32
HETATM   32  C13 UNK   900      30.911  -0.184   7.358  1.00  0.00     0.000 C 
HETATM   33  C14 UNK   900      31.146  -1.377   8.267  1.00  0.00     0.000 C 
HETATM   34  C15 UNK   900      32.205   0.153   6.668  1.00  0.00     0.000 C 
ENDBRANCH  31  32
ENDBRANCH  30  31
ENDBRANCH  29  30
ENDBRANCH  27  29
ENDBRANCH   7  27
TORSDOF 9
ENDMDL
MODEL 2
REMARK VINA RESULT:      -6.0     18.070     21.643
REMARK  9 active torsions:
REMARK  status: ('A' for Active; 'I' for Inactive)
REMARK    1  A    between atoms: O1_2  and  C2_3 
REMARK    2  A    between atoms: C8_9  and  C9_10 
REMARK    3  A    between atoms: C9_10  and  C10_12 
REMARK    4  A    between atoms: C10_12  and  C11_13 
REMARK    5  A    between atoms: C11_13  and  C12_14 
REMARK    6  A    between atoms: C12_14  and  C13_15 
REMARK    7  A    between atoms: C18_21  and  O4_22 
REMARK    8  A    between atoms: O4_22  and  C19_23 
REMARK    9  A    between atoms: C20_25  and  C21_26 
ROOT
HETATM    1  C2  UNK   900      42.598   0.519  26.738  1.00  0.00     0.096 C 
HETATM    2  C3  UNK   900      43.699   0.173  25.966  1.00  0.00     0.024 C 
HETATM    3  C4  UNK   900      44.816   1.004  25.860  1.00  0.00     0.005 C 
HETATM    4  C5  UNK   900      45.645   0.935  24.738  1.00  0.00    -0.004 C 
HETATM    5  C6  UNK   900      45.992   2.068  24.013  1.00  0.00    -0.017 C 
HETATM    6  C7  UNK   900      46.544   1.995  22.625  1.00  0.00     0.031 C 
HETATM    7  C8  UNK   900      45.450   3.303  24.360  1.00  0.00     0.056 C 
HETATM    8  C16 UNK   900      45.159   3.399  25.718  1.00  0.00     0.135 C 
HETATM    9  O3  UNK   900      44.908   4.686  26.181  1.00  0.00    -0.190 OA
HETATM   10  C17 UNK   900      44.798   2.266  26.455  1.00  0.00     0.048 C 
HETATM   11  C18 UNK   900      43.884   2.405  27.498  1.00  0.00     0.101 C 
HETATM   12  C25 UNK   900      42.814   1.532  27.661  1.00  0.00     0.049 C 
ENDROOT
BRANCH  11  13
HETATM   13  O4  UNK   900      43.728   3.682  28.015  1.00  0.00    -0.303 OA
BRANCH  13  14
HETATM   14  C19 UNK   900      42.710   3.739  29.181  1.00  0.00     0.274 C 
HETATM   15  O5  UNK   900      43.834   3.932  30.160  1.00  0.00    -0.326 OA
HETATM   16  C20 UNK   900      43.082   3.663  31.431  1.00  0.00     0.184 C 
HETATM   17  C22 UNK   900      42.465   5.236  31.702  1.00  0.00     0.215 C 
HETATM   18  O7  UNK   900      43.788   5.933  31.448  1.00  0.00    -0.218 OA
HETATM   19  C23 UNK   900      41.651   5.810  30.333  1.00  0.00     0.220 C 
HETATM   20  O8  UNK   900      40.642   4.694  30.185  1.00  0.00    -0.218 OA
HETATM   21  C24 UNK   900      42.507   5.420  28.921  1.00  0.00     0.241 C 
HETATM   22  O9  UNK   900      43.860   5.923  29.319  1.00  0.00    -0.215 OA
BRANCH  16  23
HETATM   23  C21 UNK   900      41.723   2.961  30.855  1.00  0.00     0.214 C 
HETATM   24  O6  UNK   900      41.321   1.951  31.601  1.00  0.00    -0.218 OA
ENDBRANCH  16  23
ENDBRANCH  13  14
ENDBRANCH  11  13
BRANCH   1  25
HETATM   25  O1  UNK   900      41.290   0.306  26.303  1.00  0.00    -0.328 OA
HETATM   26  C1  UNK   900      40.463  -0.008  26.747  1.00  0.00     0.181 C 
ENDBRANCH   1  25
BRANCH   7  27
HETATM   27  C9  UNK   900      44.858   4.194  23.352  1.00  0.00     0.175 C 
HETATM   28  O2  UNK   900      45.690   4.982  22.802  1.00  0.00    -0.291 OA
BRANCH  27  29
HETATM   29  C10 UNK   900      43.888   3.651  22.346  1.00  0.00     0.069 C 
BRANCH  29  30
HETATM   30  C11 UNK   900      42.621   3.237  23.010  1.00  0.00     0.008 C 
BRANCH  30  31
HETATM   31  C12 UNK   900      42.315   1.796  23.057  1.00  0.00     0.001 C 
BRANCH  31  32
HETATM   32  C13 UNK   900      41.383   1.272  22.026  1.00  0.00     0.000 C 
HETATM   33  C14 UNK   900      40.544   0.163  22.635  1.00  0.00     0.000 C 
HETATM   34  C15 UNK   900      42.129   0.712  20.845  1.00  0.00     0.000 C 
ENDBRANCH  31  32
ENDBRANCH  30  31
ENDBRANCH  29  30
ENDBRANCH  27  29
ENDBRANCH   7  27
TORSDOF 9
ENDMDL
MODEL 3
REMARK VINA RESULT:      -5.9     15.979     19.774
REMARK  9 active torsions:
REMARK  status: ('A' for Active; 'I' for Inactive)
REMARK    1  A    between atoms: O1_2  and  C2_3 
REMARK    2  A    between atoms: C8_9  and  C9_10 
REMARK    3  A    between atoms: C9_10  and  C10_12 
REMARK    4  A    between atoms: C10_12  and  C11_13 
REMARK    5  A    between atoms: C11_13  and  C12_14 
REMARK    6  A    between atoms: C12_14  and  C13_15 
REMARK    7  A    between atoms: C18_21  and  O4_22 
REMARK    8  A    between atoms: O4_22  and  C19_23 
REMARK    9  A    between atoms: C20_25  and  C21_26 
ROOT
HETATM    1  C2  UNK   900      44.429  -7.017  10.059  1.00  0.00     0.096 C 
HETATM    2  C3  UNK   900      44.067  -7.517  11.303  1.00  0.00     0.024 C 
HETATM    3  C4  UNK   900      44.078  -6.720  12.450  1.00  0.00     0.005 C 
HETATM    4  C5  UNK   900      44.233  -7.298  13.711  1.00  0.00    -0.004 C 
HETATM    5  C6  UNK   900      45.188  -6.845  14.613  1.00  0.00    -0.017 C 
HETATM    6  C7  UNK   900      45.634  -7.658  15.787  1.00  0.00     0.031 C 
HETATM    7  C8  UNK   900      46.069  -5.835  14.236  1.00  0.00     0.056 C 
HETATM    8  C16 UNK   900      45.519  -4.965  13.298  1.00  0.00     0.135 C 
HETATM    9  O3  UNK   900      46.217  -3.777  13.111  1.00  0.00    -0.190 OA
HETATM   10  C17 UNK   900      44.565  -5.413  12.379  1.00  0.00     0.048 C 
HETATM   11  C18 UNK   900      44.544  -4.853  11.104  1.00  0.00     0.101 C 
HETATM   12  C25 UNK   900      44.449  -5.633   9.957  1.00  0.00     0.049 C 
ENDROOT
BRANCH  11  13
HETATM   13  O4  UNK   900      45.156  -3.616  10.963  1.00  0.00    -0.303 OA
BRANCH  13  14
HETATM   14  C19 UNK   900      44.856  -2.948   9.599  1.00  0.00     0.274 C 
HETATM   15  O5  UNK   900      44.064  -1.875  10.292  1.00  0.00    -0.326 OA
HETATM   16  C20 UNK   900      43.374  -1.289   9.095  1.00  0.00     0.184 C 
HETATM   17  C22 UNK   900      44.592  -0.190   8.609  1.00  0.00     0.215 C 
HETATM   18  O7  UNK   900      44.824   0.361  10.002  1.00  0.00    -0.218 OA
HETATM   19  C23 UNK   900      46.081  -0.977   8.436  1.00  0.00     0.220 C 
HETATM   20  O8  UNK   900      45.666  -2.028   7.432  1.00  0.00    -0.218 OA
HETATM   21  C24 UNK   900      46.328  -2.075   9.704  1.00  0.00     0.241 C 
HETATM   22  O9  UNK   900      46.028  -1.173  10.860  1.00  0.00    -0.215 OA
BRANCH  16  23
HETATM   23  C21 UNK   900      43.630  -2.453   7.976  1.00  0.00     0.214 C 
HETATM   24  O6  UNK   900      42.654  -2.528   7.093  1.00  0.00    -0.218 OA
ENDBRANCH  16  23
ENDBRANCH  13  14
ENDBRANCH  11  13
BRANCH   1  25
HETATM   25  O1  UNK   900      45.217  -7.745   9.168  1.00  0.00    -0.328 OA
HETATM   26  C1  UNK   900      45.680  -8.619   9.218  1.00  0.00     0.181 C 
ENDBRANCH   1  25
BRANCH   7  27
HETATM   27  C9  UNK   900      47.517  -5.951  14.465  1.00  0.00     0.175 C 
HETATM   28  O2  UNK   900      48.205  -6.040  13.400  1.00  0.00    -0.291 OA
BRANCH  27  29
HETATM   29  C10 UNK   900      48.192  -5.066  15.468  1.00  0.00     0.069 C 
BRANCH  29  30
HETATM   30  C11 UNK   900      47.185  -4.401  16.342  1.00  0.00     0.008 C 
BRANCH  30  31
HETATM   31  C12 UNK   900      47.180  -4.763  17.771  1.00  0.00     0.001 C 
BRANCH  31  32
HETATM   32  C13 UNK   900      47.895  -3.849  18.699  1.00  0.00     0.000 C 
HETATM   33  C14 UNK   900      47.641  -4.297  20.128  1.00  0.00     0.000 C 
HETATM   34  C15 UNK   900      47.414  -2.431  18.552  1.00  0.00     0.000 C 
ENDBRANCH  31  32
ENDBRANCH  30  31
ENDBRANCH  29  30
ENDBRANCH  27  29
ENDBRANCH   7  27
TORSDOF 9
ENDMDL
MODEL 4
REMARK VINA RESULT:      -5.8     17.489     20.353
REMARK  9 active torsions:
REMARK  status: ('A' for Active; 'I' for Inactive)
REMARK    1  A    between atoms: O1_2  and  C2_3 
REMARK    2  A    between atoms: C8_9  and  C9_10 
REMARK    3  A    between atoms: C9_10  and  C10_12 
REMARK    4  A    between atoms: C10_12  and  C11_13 
REMARK    5  A    between atoms: C11_13  and  C12_14 
REMARK    6  A    between atoms: C12_14  and  C13_15 
REMARK    7  A    between atoms: C18_21  and  O4_22 
REMARK    8  A    between atoms: O4_22  and  C19_23 
REMARK    9  A    between atoms: C20_25  and  C21_26 
ROOT
HETATM    1  C2  UNK   900      47.931   4.535  23.634  1.00  0.00     0.096 C 
HETATM    2  C3  UNK   900      47.355   3.611  24.495  1.00  0.00     0.024 C 
HETATM    3  C4  UNK   900      46.590   2.542  24.025  1.00  0.00     0.005 C 
HETATM    4  C5  UNK   900      45.619   1.955  24.839  1.00  0.00    -0.004 C 
HETATM    5  C6  UNK   900      44.314   1.766  24.401  1.00  0.00    -0.017 C 
HETATM    6  C7  UNK   900      43.181   1.504  25.342  1.00  0.00     0.031 C 
HETATM    7  C8  UNK   900      43.932   2.232  23.146  1.00  0.00     0.056 C 
HETATM    8  C16 UNK   900      44.984   2.244  22.234  1.00  0.00     0.135 C 
HETATM    9  O3  UNK   900      44.614   2.402  20.904  1.00  0.00    -0.190 OA
HETATM   10  C17 UNK   900      46.301   2.445  22.663  1.00  0.00     0.048 C 
HETATM   11  C18 UNK   900      47.182   3.130  21.830  1.00  0.00     0.101 C 
HETATM   12  C25 UNK   900      48.009   4.142  22.305  1.00  0.00     0.049 C 
ENDROOT
BRANCH  11  13
HETATM   13  O4  UNK   900      46.845   3.185  20.486  1.00  0.00    -0.303 OA
BRANCH  13  14
HETATM   14  C19 UNK   900      48.053   2.930  19.551  1.00  0.00     0.274 C 
HETATM   15  O5  UNK   900      47.604   1.510  19.348  1.00  0.00    -0.326 OA
HETATM   16  C20 UNK   900      48.855   0.960  18.727  1.00  0.00     0.184 C 
HETATM   17  C22 UNK   900      48.538   1.380  17.098  1.00  0.00     0.215 C 
HETATM   18  O7  UNK   900      47.113   0.861  17.112  1.00  0.00    -0.218 OA
HETATM   19  C23 UNK   900      48.169   3.026  16.960  1.00  0.00     0.220 C 
HETATM   20  O8  UNK   900      49.424   3.593  17.582  1.00  0.00    -0.218 OA
HETATM   21  C24 UNK   900      47.146   3.518  18.221  1.00  0.00     0.241 C 
HETATM   22  O9  UNK   900      46.103   2.450  18.109  1.00  0.00    -0.215 OA
BRANCH  16  23
HETATM   23  C21 UNK   900      49.932   2.137  19.080  1.00  0.00     0.214 C 
HETATM   24  O6  UNK   900      51.095   1.657  19.472  1.00  0.00    -0.218 OA
ENDBRANCH  16  23
ENDBRANCH  13  14
ENDBRANCH  11  13
BRANCH   1  25
HETATM   25  O1  UNK   900      47.932   5.903  23.906  1.00  0.00    -0.328 OA
HETATM   26  C1  UNK   900      47.397   6.669  23.576  1.00  0.00     0.181 C 
ENDBRANCH   1  25
BRANCH   7  27
HETATM   27  C9  UNK   900      42.704   3.019  22.958  1.00  0.00     0.175 C 
HETATM   28  O2  UNK   900      42.906   4.256  22.747  1.00  0.00    -0.291 OA
BRANCH  27  29
HETATM   29  C10 UNK   900      41.605   2.497  22.081  1.00  0.00     0.069 C 
BRANCH  29  30
HETATM   30  C11 UNK   900      41.650   1.010  22.013  1.00  0.00     0.008 C 
BRANCH  30  31
HETATM   31  C12 UNK   900      40.444   0.273  22.433  1.00  0.00     0.001 C 
BRANCH  31  32
HETATM   32  C13 UNK   900      40.632  -0.812  23.431  1.00  0.00     0.000 C 
HETATM   33  C14 UNK   900      39.960  -2.074  22.921  1.00  0.00     0.000 C 
HETATM   34  C15 UNK   900      40.021  -0.449  24.757  1.00  0.00     0.000 C 
ENDBRANCH  31  32
ENDBRANCH  30  31
ENDBRANCH  29  30
ENDBRANCH  27  29
ENDBRANCH   7  27
TORSDOF 9
ENDMDL
MODEL 5
REMARK VINA RESULT:      -5.7     14.877     18.420
REMARK  9 active torsions:
REMARK  status: ('A' for Active; 'I' for Inactive)
REMARK    1  A    between atoms: O1_2  and  C2_3 
REMARK    2  A    between atoms: C8_9  and  C9_10 
REMARK    3  A    between atoms: C9_10  and  C10_12 
REMARK    4  A    between atoms: C10_12  and  C11_13 
REMARK    5  A    between atoms: C11_13  and  C12_14 
REMARK    6  A    between atoms: C12_14  and  C13_15 
REMARK    7  A    between atoms: C18_21  and  O4_22 
REMARK    8  A    between atoms: O4_22  and  C19_23 
REMARK    9  A    between atoms: C20_25  and  C21_26 
ROOT
HETATM    1  C2  UNK   900      48.403   4.449  19.457  1.00  0.00     0.096 C 
HETATM    2  C3  UNK   900      48.522   3.575  20.530  1.00  0.00     0.024 C 
HETATM    3  C4  UNK   900      47.662   2.486  20.692  1.00  0.00     0.005 C 
HETATM    4  C5  UNK   900      47.434   1.950  21.961  1.00  0.00    -0.004 C 
HETATM    5  C6  UNK   900      46.149   1.745  22.449  1.00  0.00    -0.017 C 
HETATM    6  C7  UNK   900      45.865   1.540  23.903  1.00  0.00     0.031 C 
HETATM    7  C8  UNK   900      45.051   2.146  21.692  1.00  0.00     0.056 C 
HETATM    8  C16 UNK   900      45.297   2.104  20.323  1.00  0.00     0.135 C 
HETATM    9  O3  UNK   900      44.170   2.193  19.515  1.00  0.00    -0.190 OA
HETATM   10  C17 UNK   900      46.585   2.319  19.820  1.00  0.00     0.048 C 
HETATM   11  C18 UNK   900      46.729   2.955  18.589  1.00  0.00     0.101 C 
HETATM   12  C25 UNK   900      47.642   3.985  18.394  1.00  0.00     0.049 C 
ENDROOT
BRANCH  11  13
HETATM   13  O4  UNK   900      45.622   2.940  17.754  1.00  0.00    -0.303 OA
BRANCH  13  14
HETATM   14  C19 UNK   900      45.811   3.811  16.487  1.00  0.00     0.274 C 
HETATM   15  O5  UNK   900      45.270   2.698  15.634  1.00  0.00    -0.326 OA
HETATM   16  C20 UNK   900      45.693   3.213  14.289  1.00  0.00     0.184 C 
HETATM   17  C22 UNK   900      44.350   4.224  13.968  1.00  0.00     0.215 C 
HETATM   18  O7  UNK   900      43.317   3.187  14.366  1.00  0.00    -0.218 OA
HETATM   19  C23 UNK   900      44.083   5.299  15.248  1.00  0.00     0.220 C 
HETATM   20  O8  UNK   900      45.444   5.957  15.280  1.00  0.00    -0.218 OA
HETATM   21  C24 UNK   900      44.267   4.511  16.739  1.00  0.00     0.241 C 
HETATM   22  O9  UNK   900      43.387   3.326  16.490  1.00  0.00    -0.215 OA
BRANCH  16  23
HETATM   23  C21 UNK   900      46.773   4.365  14.712  1.00  0.00     0.214 C 
HETATM   24  O6  UNK   900      47.868   4.325  13.979  1.00  0.00    -0.218 OA
ENDBRANCH  16  23
ENDBRANCH  13  14
ENDBRANCH  11  13
BRANCH   1  25
HETATM   25  O1  UNK   900      48.536   5.829  19.606  1.00  0.00    -0.328 OA
HETATM   26  C1  UNK   900      49.265   6.472  19.418  1.00  0.00     0.181 C 
ENDBRANCH   1  25
BRANCH   7  27
HETATM   27  C9  UNK   900      43.954   2.929  22.282  1.00  0.00     0.175 C 
HETATM   28  O2  UNK   900      44.109   4.188  22.194  1.00  0.00    -0.291 OA
BRANCH  27  29
HETATM   29  C10 UNK   900      42.530   2.543  22.019  1.00  0.00     0.069 C 
BRANCH  29  30
HETATM   30  C11 UNK   900      42.065   1.543  23.020  1.00  0.00     0.008 C 
BRANCH  30  31
HETATM   31  C12 UNK   900      41.018   0.595  22.599  1.00  0.00     0.001 C 
BRANCH  31  32
HETATM   32  C13 UNK   900      40.928  -0.685  23.348  1.00  0.00     0.000 C 
HETATM   33  C14 UNK   900      40.010  -1.634  22.598  1.00  0.00     0.000 C 
HETATM   34  C15 UNK   900      40.370  -0.474  24.729  1.00  0.00     0.000 C 
ENDBRANCH  31  32
ENDBRANCH  30  31
ENDBRANCH  29  30
ENDBRANCH  27  29
ENDBRANCH   7  27
TORSDOF 9
ENDMDL
MODEL 6
REMARK VINA RESULT:      -5.6     15.954     19.697
REMARK  9 active torsions:
REMARK  status: ('A' for Active; 'I' for Inactive)
REMARK    1  A    between atoms: O1_2  and  C2_3 
REMARK    2  A    between atoms: C8_9  and  C9_10 
REMARK    3  A    between atoms: C9_10  and  C10_12 
REMARK    4  A    between atoms: C10_12  and  C11_13 
REMARK    5  A    between atoms: C11_13  and  C12_14 
REMARK    6  A    between atoms: C12_14  and  C13_15 
REMARK    7  A    between atoms: C18_21  and  O4_22 
REMARK    8  A    between atoms: O4_22  and  C19_23 
REMARK    9  A    between atoms: C20_25  and  C21_26 
ROOT
HETATM    1  C2  UNK   900      44.401  -7.026  10.143  1.00  0.00     0.096 C 
HETATM    2  C3  UNK   900      44.019  -7.510  11.387  1.00  0.00     0.024 C 
HETATM    3  C4  UNK   900      44.053  -6.711  12.531  1.00  0.00     0.005 C 
HETATM    4  C5  UNK   900      44.185  -7.290  13.795  1.00  0.00    -0.004 C 
HETATM    5  C6  UNK   900      45.151  -6.866  14.698  1.00  0.00    -0.017 C 
HETATM    6  C7  UNK   900      45.567  -7.689  15.876  1.00  0.00     0.031 C 
HETATM    7  C8  UNK   900      46.065  -5.885  14.322  1.00  0.00     0.056 C 
HETATM    8  C16 UNK   900      45.547  -5.000  13.380  1.00  0.00     0.135 C 
HETATM    9  O3  UNK   900      46.283  -3.837  13.192  1.00  0.00    -0.190 OA
HETATM   10  C17 UNK   900      44.581  -5.421  12.459  1.00  0.00     0.048 C 
HETATM   11  C18 UNK   900      44.583  -4.863  11.182  1.00  0.00     0.101 C 
HETATM   12  C25 UNK   900      44.466  -5.644  10.037  1.00  0.00     0.049 C 
ENDROOT
BRANCH  11  13
HETATM   13  O4  UNK   900      45.235  -3.648  11.040  1.00  0.00    -0.303 OA
BRANCH  13  14
HETATM   14  C19 UNK   900      44.903  -2.939   9.703  1.00  0.00     0.274 C 
HETATM   15  O5  UNK   900      43.997  -1.984  10.427  1.00  0.00    -0.326 OA
HETATM   16  C20 UNK   900      43.282  -1.403   9.243  1.00  0.00     0.184 C 
HETATM   17  C22 UNK   900      44.400  -0.170   8.846  1.00  0.00     0.215 C 
HETATM   18  O7  UNK   900      44.547   0.327  10.272  1.00  0.00    -0.218 OA
HETATM   19  C23 UNK   900      45.961  -0.803   8.675  1.00  0.00     0.220 C 
HETATM   20  O8  UNK   900      45.671  -1.835   7.608  1.00  0.00    -0.218 OA
HETATM   21  C24 UNK   900      46.282  -1.939   9.893  1.00  0.00     0.241 C 
HETATM   22  O9  UNK   900      45.872  -1.131  11.084  1.00  0.00    -0.215 OA
BRANCH  16  23
HETATM   23  C21 UNK   900      43.673  -2.476   8.075  1.00  0.00     0.214 C 
HETATM   24  O6  UNK   900      42.696  -2.658   7.207  1.00  0.00    -0.218 OA
ENDBRANCH  16  23
ENDBRANCH  13  14
ENDBRANCH  11  13
BRANCH   1  25
HETATM   25  O1  UNK   900      45.169  -7.781   9.256  1.00  0.00    -0.328 OA
HETATM   26  C1  UNK   900      45.810  -7.551   8.537  1.00  0.00     0.181 C 
ENDBRANCH   1  25
BRANCH   7  27
HETATM   27  C9  UNK   900      47.508  -6.048  14.555  1.00  0.00     0.175 C 
HETATM   28  O2  UNK   900      47.886  -5.714  15.722  1.00  0.00    -0.291 OA
BRANCH  27  29
HETATM   29  C10 UNK   900      48.207  -7.293  14.100  1.00  0.00     0.069 C 
BRANCH  29  30
HETATM   30  C11 UNK   900      48.061  -7.468  12.628  1.00  0.00     0.008 C 
BRANCH  30  31
HETATM   31  C12 UNK   900      47.365  -8.677  12.151  1.00  0.00     0.001 C 
BRANCH  31  32
HETATM   32  C13 UNK   900      47.143  -9.761  13.143  1.00  0.00     0.000 C 
HETATM   33  C14 UNK   900      48.222 -10.816  12.973  1.00  0.00     0.000 C 
HETATM   34  C15 UNK   900      45.802 -10.415  12.950  1.00  0.00     0.000 C 
ENDBRANCH  31  32
ENDBRANCH  30  31
ENDBRANCH  29  30
ENDBRANCH  27  29
ENDBRANCH   7  27
TORSDOF 9
ENDMDL
MODEL 7
REMARK VINA RESULT:      -5.6     15.635     19.943
REMARK  9 active torsions:
REMARK  status: ('A' for Active; 'I' for Inactive)
REMARK    1  A    between atoms: O1_2  and  C2_3 
REMARK    2  A    between atoms: C8_9  and  C9_10 
REMARK    3  A    between atoms: C9_10  and  C10_12 
REMARK    4  A    between atoms: C10_12  and  C11_13 
REMARK    5  A    between atoms: C11_13  and  C12_14 
REMARK    6  A    between atoms: C12_14  and  C13_15 
REMARK    7  A    between atoms: C18_21  and  O4_22 
REMARK    8  A    between atoms: O4_22  and  C19_23 
REMARK    9  A    between atoms: C20_25  and  C21_26 
ROOT
HETATM    1  C2  UNK   900      44.030   5.467  24.701  1.00  0.00     0.096 C 
HETATM    2  C3  UNK   900      43.113   5.918  23.761  1.00  0.00     0.024 C 
HETATM    3  C4  UNK   900      42.311   5.038  23.032  1.00  0.00     0.005 C 
HETATM    4  C5  UNK   900      41.808   5.409  21.784  1.00  0.00    -0.004 C 
HETATM    5  C6  UNK   900      41.959   4.602  20.663  1.00  0.00    -0.017 C 
HETATM    6  C7  UNK   900      41.782   5.119  19.270  1.00  0.00     0.031 C 
HETATM    7  C8  UNK   900      42.691   3.422  20.756  1.00  0.00     0.056 C 
HETATM    8  C16 UNK   900      42.640   2.856  22.028  1.00  0.00     0.135 C 
HETATM    9  O3  UNK   900      43.084   1.542  22.110  1.00  0.00    -0.190 OA
HETATM   10  C17 UNK   900      42.498   3.661  23.163  1.00  0.00     0.048 C 
HETATM   11  C18 UNK   900      43.118   3.268  24.347  1.00  0.00     0.101 C 
HETATM   12  C25 UNK   900      43.851   4.158  25.125  1.00  0.00     0.049 C 
ENDROOT
BRANCH  11  13
HETATM   13  O4  UNK   900      43.459   1.928  24.450  1.00  0.00    -0.303 OA
BRANCH  13  14
HETATM   14  C19 UNK   900      42.361   1.079  25.138  1.00  0.00     0.274 C 
HETATM   15  O5  UNK   900      43.179  -0.163  24.925  1.00  0.00    -0.326 OA
HETATM   16  C20 UNK   900      42.123  -1.188  25.220  1.00  0.00     0.184 C 
HETATM   17  C22 UNK   900      42.304  -1.261  26.921  1.00  0.00     0.215 C 
HETATM   18  O7  UNK   900      43.817  -1.363  26.879  1.00  0.00    -0.218 OA
HETATM   19  C23 UNK   900      42.209   0.285  27.605  1.00  0.00     0.220 C 
HETATM   20  O8  UNK   900      40.849   0.683  27.077  1.00  0.00    -0.218 OA
HETATM   21  C24 UNK   900      43.065   1.408  26.666  1.00  0.00     0.241 C 
HETATM   22  O9  UNK   900      44.359   0.668  26.534  1.00  0.00    -0.215 OA
BRANCH  16  23
HETATM   23  C21 UNK   900      40.767  -0.278  25.155  1.00  0.00     0.214 C 
HETATM   24  O6  UNK   900      39.794  -0.867  24.489  1.00  0.00    -0.218 OA
ENDBRANCH  16  23
ENDBRANCH  13  14
ENDBRANCH  11  13
BRANCH   1  25
HETATM   25  O1  UNK   900      45.306   6.017  24.816  1.00  0.00    -0.328 OA
HETATM   26  C1  UNK   900      45.705   6.706  25.405  1.00  0.00     0.181 C 
ENDBRANCH   1  25
BRANCH   7  27
HETATM   27  C9  UNK   900      43.729   3.079  19.772  1.00  0.00     0.175 C 
HETATM   28  O2  UNK   900      43.275   2.642  18.669  1.00  0.00    -0.291 OA
BRANCH  27  29
HETATM   29  C10 UNK   900      44.886   4.006  19.548  1.00  0.00     0.069 C 
BRANCH  29  30
HETATM   30  C11 UNK   900      45.490   4.415  20.846  1.00  0.00     0.008 C 
BRANCH  30  31
HETATM   31  C12 UNK   900      46.625   3.620  21.349  1.00  0.00     0.001 C 
BRANCH  31  32
HETATM   32  C13 UNK   900      46.370   2.753  22.528  1.00  0.00     0.000 C 
HETATM   33  C14 UNK   900      47.142   3.296  23.718  1.00  0.00     0.000 C 
HETATM   34  C15 UNK   900      46.816   1.338  22.276  1.00  0.00     0.000 C 
ENDBRANCH  31  32
ENDBRANCH  30  31
ENDBRANCH  29  30
ENDBRANCH  27  29
ENDBRANCH   7  27
TORSDOF 9
ENDMDL
MODEL 8
REMARK VINA RESULT:      -5.4      1.518      2.262
REMARK  9 active torsions:
REMARK  status: ('A' for Active; 'I' for Inactive)
REMARK    1  A    between atoms: O1_2  and  C2_3 
REMARK    2  A    between atoms: C8_9  and  C9_10 
REMARK    3  A    between atoms: C9_10  and  C10_12 
REMARK    4  A    between atoms: C10_12  and  C11_13 
REMARK    5  A    between atoms: C11_13  and  C12_14 
REMARK    6  A    between atoms: C12_14  and  C13_15 
REMARK    7  A    between atoms: C18_21  and  O4_22 
REMARK    8  A    between atoms: O4_22  and  C19_23 
REMARK    9  A    between atoms: C20_25  and  C21_26 
ROOT
HETATM    1  C2  UNK   900      32.869   6.757  12.247  1.00  0.00     0.096 C 
HETATM    2  C3  UNK   900      33.538   6.192  11.170  1.00  0.00     0.024 C 
HETATM    3  C4  UNK   900      33.004   6.208   9.880  1.00  0.00     0.005 C 
HETATM    4  C5  UNK   900      33.377   5.238   8.948  1.00  0.00    -0.004 C 
HETATM    5  C6  UNK   900      32.435   4.502   8.239  1.00  0.00    -0.017 C 
HETATM    6  C7  UNK   900      32.774   3.226   7.537  1.00  0.00     0.031 C 
HETATM    7  C8  UNK   900      31.080   4.678   8.504  1.00  0.00     0.056 C 
HETATM    8  C16 UNK   900      30.781   5.964   8.945  1.00  0.00     0.135 C 
HETATM    9  O3  UNK   900      29.431   6.296   8.934  1.00  0.00    -0.190 OA
HETATM   10  C17 UNK   900      31.718   6.709   9.670  1.00  0.00     0.048 C 
HETATM   11  C18 UNK   900      31.266   7.583  10.655  1.00  0.00     0.101 C 
HETATM   12  C25 UNK   900      31.845   7.634  11.918  1.00  0.00     0.049 C 
ENDROOT
BRANCH  11  13
HETATM   13  O4  UNK   900      29.941   7.984  10.564  1.00  0.00    -0.303 OA
BRANCH  13  14
HETATM   14  C19 UNK   900      29.686   9.370  11.206  1.00  0.00     0.274 C 
HETATM   15  O5  UNK   900      29.644  10.001   9.842  1.00  0.00    -0.326 OA
HETATM   16  C20 UNK   900      29.749  11.441  10.252  1.00  0.00     0.184 C 
HETATM   17  C22 UNK   900      28.089  11.749  10.536  1.00  0.00     0.215 C 
HETATM   18  O7  UNK   900      27.621  11.104   9.245  1.00  0.00    -0.218 OA
HETATM   19  C23 UNK   900      27.437  10.604  11.599  1.00  0.00     0.220 C 
HETATM   20  O8  UNK   900      28.380  10.810  12.762  1.00  0.00    -0.218 OA
HETATM   21  C24 UNK   900      28.002   9.049  11.225  1.00  0.00     0.241 C 
HETATM   22  O9  UNK   900      27.710   9.039   9.757  1.00  0.00    -0.215 OA
BRANCH  16  23
HETATM   23  C21 UNK   900      30.242  11.297  11.803  1.00  0.00     0.214 C 
HETATM   24  O6  UNK   900      31.216  12.135  12.104  1.00  0.00    -0.218 OA
ENDBRANCH  16  23
ENDBRANCH  13  14
ENDBRANCH  11  13
BRANCH   1  25
HETATM   25  O1  UNK   900      32.816   6.137  13.496  1.00  0.00    -0.328 OA
HETATM   26  C1  UNK   900      32.211   6.219  14.276  1.00  0.00     0.181 C 
ENDBRANCH   1  25
BRANCH   7  27
HETATM   27  C9  UNK   900      30.182   3.532   8.717  1.00  0.00     0.175 C 
HETATM   28  O2  UNK   900      29.965   3.262   9.940  1.00  0.00    -0.291 OA
BRANCH  27  29
HETATM   29  C10 UNK   900      28.928   3.401   7.907  1.00  0.00     0.069 C 
BRANCH  29  30
HETATM   30  C11 UNK   900      29.245   3.355   6.453  1.00  0.00     0.008 C 
BRANCH  30  31
HETATM   31  C12 UNK   900      28.449   4.211   5.554  1.00  0.00     0.001 C 
BRANCH  31  32
HETATM   32  C13 UNK   900      29.179   5.268   4.810  1.00  0.00     0.000 C 
HETATM   33  C14 UNK   900      28.825   5.170   3.337  1.00  0.00     0.000 C 
HETATM   34  C15 UNK   900      30.669   5.111   4.953  1.00  0.00     0.000 C 
ENDBRANCH  31  32
ENDBRANCH  30  31
ENDBRANCH  29  30
ENDBRANCH  27  29
ENDBRANCH   7  27
TORSDOF 9
ENDMDL
MODEL 9
REMARK VINA RESULT:      -5.4      3.481      8.904
REMARK  9 active torsions:
REMARK  status: ('A' for Active; 'I' for Inactive)
REMARK    1  A    between atoms: O1_2  and  C2_3 
REMARK    2  A    between atoms: C8_9  and  C9_10 
REMARK    3  A    between atoms: C9_10  and  C10_12 
REMARK    4  A    between atoms: C10_12  and  C11_13 
REMARK    5  A    between atoms: C11_13  and  C12_14 
REMARK    6  A    between atoms: C12_14  and  C13_15 
REMARK    7  A    between atoms: C18_21  and  O4_22 
REMARK    8  A    between atoms: O4_22  and  C19_23 
REMARK    9  A    between atoms: C20_25  and  C21_26 
ROOT
HETATM    1  C2  UNK   900      33.788   3.899   4.651  1.00  0.00     0.096 C 
HETATM    2  C3  UNK   900      34.404   4.939   5.334  1.00  0.00     0.024 C 
HETATM    3  C4  UNK   900      34.315   5.064   6.722  1.00  0.00     0.005 C 
HETATM    4  C5  UNK   900      34.458   6.313   7.330  1.00  0.00    -0.004 C 
HETATM    5  C6  UNK   900      33.525   6.796   8.239  1.00  0.00    -0.017 C 
HETATM    6  C7  UNK   900      33.438   8.242   8.610  1.00  0.00     0.031 C 
HETATM    7  C8  UNK   900      32.376   6.056   8.509  1.00  0.00     0.056 C 
HETATM    8  C16 UNK   900      32.573   4.685   8.365  1.00  0.00     0.135 C 
HETATM    9  O3  UNK   900      31.576   3.883   8.907  1.00  0.00    -0.190 OA
HETATM   10  C17 UNK   900      33.502   4.189   7.445  1.00  0.00     0.048 C 
HETATM   11  C18 UNK   900      33.234   2.981   6.805  1.00  0.00     0.101 C 
HETATM   12  C25 UNK   900      33.399   2.821   5.433  1.00  0.00     0.049 C 
ENDROOT
BRANCH  11  13
HETATM   13  O4  UNK   900      32.312   2.148   7.420  1.00  0.00    -0.303 OA
BRANCH  13  14
HETATM   14  C19 UNK   900      31.689   1.116   6.447  1.00  0.00     0.274 C 
HETATM   15  O5  UNK   900      32.354  -0.003   7.198  1.00  0.00    -0.326 OA
HETATM   16  C20 UNK   900      32.158  -1.102   6.195  1.00  0.00     0.184 C 
HETATM   17  C22 UNK   900      30.592  -1.605   6.668  1.00  0.00     0.215 C 
HETATM   18  O7  UNK   900      30.918  -1.645   8.149  1.00  0.00    -0.218 OA
HETATM   19  C23 UNK   900      29.525  -0.292   6.715  1.00  0.00     0.220 C 
HETATM   20  O8  UNK   900      29.690   0.186   5.290  1.00  0.00    -0.218 OA
HETATM   21  C24 UNK   900      30.273   1.063   7.411  1.00  0.00     0.241 C 
HETATM   22  O9  UNK   900      30.812   0.423   8.652  1.00  0.00    -0.215 OA
BRANCH  16  23
HETATM   23  C21 UNK   900      31.751  -0.249   4.861  1.00  0.00     0.214 C 
HETATM   24  O6  UNK   900      32.408  -0.644   3.788  1.00  0.00    -0.218 OA
ENDBRANCH  16  23
ENDBRANCH  13  14
ENDBRANCH  11  13
BRANCH   1  25
HETATM   25  O1  UNK   900      33.120   4.097   3.443  1.00  0.00    -0.328 OA
HETATM   26  C1  UNK   900      33.304   4.646   2.639  1.00  0.00     0.181 C 
ENDBRANCH   1  25
BRANCH   7  27
HETATM   27  C9  UNK   900      31.042   6.676   8.501  1.00  0.00     0.175 C 
HETATM   28  O2  UNK   900      30.361   6.431   7.456  1.00  0.00    -0.291 OA
BRANCH  27  29
HETATM   29  C10 UNK   900      30.182   6.621   9.728  1.00  0.00     0.069 C 
BRANCH  29  30
HETATM   30  C11 UNK   900      30.961   7.023  10.932  1.00  0.00     0.008 C 
BRANCH  30  31
HETATM   31  C12 UNK   900      31.105   6.030  12.013  1.00  0.00     0.001 C 
BRANCH  31  32
HETATM   32  C13 UNK   900      32.461   5.863  12.596  1.00  0.00     0.000 C 
HETATM   33  C14 UNK   900      32.377   6.041  14.101  1.00  0.00     0.000 C 
HETATM   34  C15 UNK   900      33.424   6.881  12.048  1.00  0.00     0.000 C 
ENDBRANCH  31  32
ENDBRANCH  30  31
ENDBRANCH  29  30
ENDBRANCH  27  29
ENDBRANCH   7  27
TORSDOF 9
ENDMDL
